*SPEF "IEEE 1481-1998"
*DESIGN "SUM"
*DATE "Thu Jul 21 17:51:37 2016"
*VENDOR "Cadence Design Systems, Inc."
*PROGRAM "Encounter"
*VERSION "13.13-s017_1"
*DESIGN_FLOW "COUPLING C" "PIN_CAP NONE" "NAME_SCOPE LOCAL"
*DIVIDER /
*DELIMITER :
*BUS_DELIMITER []
*T_UNIT 1 NS
*C_UNIT 1 PF
*R_UNIT 1 OHM
*L_UNIT 1 HENRY

// MMMC spef file for corner 'standard'

*NAME_MAP

*1 maprca/FAI_99/n1
*2 maprca/FAI_99/n2
*3 maprca/FAI_99/n3
*4 maprca/FAI_98/n1
*5 maprca/FAI_98/n2
*6 maprca/FAI_98/n3
*7 maprca/FAI_97/n1
*8 maprca/FAI_97/n2
*9 maprca/FAI_97/n3
*10 maprca/FAI_96/n1
*11 maprca/FAI_96/n2
*12 maprca/FAI_96/n3
*13 maprca/FAI_95/n1
*14 maprca/FAI_95/n2
*15 maprca/FAI_95/n3
*16 maprca/FAI_94/n1
*17 maprca/FAI_94/n2
*18 maprca/FAI_94/n3
*19 maprca/FAI_93/n1
*20 maprca/FAI_93/n2
*21 maprca/FAI_93/n3
*22 maprca/FAI_92/n1
*23 maprca/FAI_92/n2
*24 maprca/FAI_92/n3
*25 maprca/FAI_91/n1
*26 maprca/FAI_91/n2
*27 maprca/FAI_91/n3
*28 maprca/FAI_90/n1
*29 maprca/FAI_90/n2
*30 maprca/FAI_90/n3
*31 maprca/FAI_9/n1
*32 maprca/FAI_9/n2
*33 maprca/FAI_9/n3
*34 maprca/FAI_9/n4
*35 maprca/FAI_89/n1
*36 maprca/FAI_89/n2
*37 maprca/FAI_89/n3
*38 maprca/FAI_88/n1
*39 maprca/FAI_88/n2
*40 maprca/FAI_88/n3
*41 maprca/FAI_87/n1
*42 maprca/FAI_87/n2
*43 maprca/FAI_87/n3
*44 maprca/FAI_86/n1
*45 maprca/FAI_86/n2
*46 maprca/FAI_86/n3
*47 maprca/FAI_85/n1
*48 maprca/FAI_85/n2
*49 maprca/FAI_85/n3
*50 maprca/FAI_84/n1
*51 maprca/FAI_84/n2
*52 maprca/FAI_84/n3
*53 maprca/FAI_83/n1
*54 maprca/FAI_83/n2
*55 maprca/FAI_83/n3
*56 maprca/FAI_82/n1
*57 maprca/FAI_82/n2
*58 maprca/FAI_82/n3
*59 maprca/FAI_81/n1
*60 maprca/FAI_81/n2
*61 maprca/FAI_81/n3
*62 maprca/FAI_80/n1
*63 maprca/FAI_80/n2
*64 maprca/FAI_80/n3
*65 maprca/FAI_8/n1
*66 maprca/FAI_8/n2
*67 maprca/FAI_8/n3
*68 maprca/FAI_8/n4
*69 maprca/FAI_79/n1
*70 maprca/FAI_79/n2
*71 maprca/FAI_79/n3
*72 maprca/FAI_78/n1
*73 maprca/FAI_78/n2
*74 maprca/FAI_78/n3
*75 maprca/FAI_77/n1
*76 maprca/FAI_77/n2
*77 maprca/FAI_77/n3
*78 maprca/FAI_76/n1
*79 maprca/FAI_76/n2
*80 maprca/FAI_76/n3
*81 maprca/FAI_75/n1
*82 maprca/FAI_75/n2
*83 maprca/FAI_75/n3
*84 maprca/FAI_74/n1
*85 maprca/FAI_74/n2
*86 maprca/FAI_74/n3
*87 maprca/FAI_73/n1
*88 maprca/FAI_73/n2
*89 maprca/FAI_73/n3
*90 maprca/FAI_72/n1
*91 maprca/FAI_72/n2
*92 maprca/FAI_72/n3
*93 maprca/FAI_71/n1
*94 maprca/FAI_71/n2
*95 maprca/FAI_71/n3
*96 maprca/FAI_70/n1
*97 maprca/FAI_70/n2
*98 maprca/FAI_70/n3
*99 maprca/FAI_7/n1
*100 maprca/FAI_7/n2
*101 maprca/FAI_7/n3
*102 maprca/FAI_7/n4
*103 maprca/FAI_69/n1
*104 maprca/FAI_69/n2
*105 maprca/FAI_69/n3
*106 maprca/FAI_68/n1
*107 maprca/FAI_68/n2
*108 maprca/FAI_68/n3
*109 maprca/FAI_67/n1
*110 maprca/FAI_67/n2
*111 maprca/FAI_67/n3
*112 maprca/FAI_66/n1
*113 maprca/FAI_66/n2
*114 maprca/FAI_66/n3
*115 maprca/FAI_65/n1
*116 maprca/FAI_65/n2
*117 maprca/FAI_65/n3
*118 maprca/FAI_64/n1
*119 maprca/FAI_64/n2
*120 maprca/FAI_64/n3
*121 maprca/FAI_63/n1
*122 maprca/FAI_63/n2
*123 maprca/FAI_63/n3
*124 maprca/FAI_62/n1
*125 maprca/FAI_62/n2
*126 maprca/FAI_62/n3
*127 maprca/FAI_61/n1
*128 maprca/FAI_61/n2
*129 maprca/FAI_61/n3
*130 maprca/FAI_60/n1
*131 maprca/FAI_60/n2
*132 maprca/FAI_60/n3
*133 maprca/FAI_6/n1
*134 maprca/FAI_6/n2
*135 maprca/FAI_6/n3
*136 maprca/FAI_6/n4
*137 maprca/FAI_59/n1
*138 maprca/FAI_59/n2
*139 maprca/FAI_59/n3
*140 maprca/FAI_58/n1
*141 maprca/FAI_58/n2
*142 maprca/FAI_58/n3
*143 maprca/FAI_57/n1
*144 maprca/FAI_57/n2
*145 maprca/FAI_57/n3
*146 maprca/FAI_56/n1
*147 maprca/FAI_56/n2
*148 maprca/FAI_56/n3
*149 maprca/FAI_55/n1
*150 maprca/FAI_55/n2
*151 maprca/FAI_55/n3
*152 maprca/FAI_54/n1
*153 maprca/FAI_54/n2
*154 maprca/FAI_54/n3
*155 maprca/FAI_53/n1
*156 maprca/FAI_53/n2
*157 maprca/FAI_53/n3
*158 maprca/FAI_52/n1
*159 maprca/FAI_52/n2
*160 maprca/FAI_52/n3
*161 maprca/FAI_51/n1
*162 maprca/FAI_51/n2
*163 maprca/FAI_51/n3
*164 maprca/FAI_50/n1
*165 maprca/FAI_50/n2
*166 maprca/FAI_50/n3
*167 maprca/FAI_5/n1
*168 maprca/FAI_5/n2
*169 maprca/FAI_5/n3
*170 maprca/FAI_5/n4
*171 maprca/FAI_49/n1
*172 maprca/FAI_49/n2
*173 maprca/FAI_49/n3
*174 maprca/FAI_48/n1
*175 maprca/FAI_48/n2
*176 maprca/FAI_48/n3
*177 maprca/FAI_47/n1
*178 maprca/FAI_47/n2
*179 maprca/FAI_47/n3
*180 maprca/FAI_46/n1
*181 maprca/FAI_46/n2
*182 maprca/FAI_46/n3
*183 maprca/FAI_45/n1
*184 maprca/FAI_45/n2
*185 maprca/FAI_45/n3
*186 maprca/FAI_44/n1
*187 maprca/FAI_44/n2
*188 maprca/FAI_44/n3
*189 maprca/FAI_43/n1
*190 maprca/FAI_43/n2
*191 maprca/FAI_43/n3
*192 maprca/FAI_42/n1
*193 maprca/FAI_42/n2
*194 maprca/FAI_42/n3
*195 maprca/FAI_41/n1
*196 maprca/FAI_41/n2
*197 maprca/FAI_41/n3
*198 maprca/FAI_40/n1
*199 maprca/FAI_40/n2
*200 maprca/FAI_40/n3
*201 maprca/FAI_4/n1
*202 maprca/FAI_4/n2
*203 maprca/FAI_4/n3
*204 maprca/FAI_4/n4
*205 maprca/FAI_39/n1
*206 maprca/FAI_39/n2
*207 maprca/FAI_39/n3
*208 maprca/FAI_38/n1
*209 maprca/FAI_38/n2
*210 maprca/FAI_38/n3
*211 maprca/FAI_37/n1
*212 maprca/FAI_37/n2
*213 maprca/FAI_37/n3
*214 maprca/FAI_36/n1
*215 maprca/FAI_36/n2
*216 maprca/FAI_36/n3
*217 maprca/FAI_35/n1
*218 maprca/FAI_35/n2
*219 maprca/FAI_35/n3
*220 maprca/FAI_34/n1
*221 maprca/FAI_34/n2
*222 maprca/FAI_34/n3
*223 maprca/FAI_33/n1
*224 maprca/FAI_33/n2
*225 maprca/FAI_33/n3
*226 maprca/FAI_32/n1
*227 maprca/FAI_32/n2
*228 maprca/FAI_32/n3
*229 maprca/FAI_31/n1
*230 maprca/FAI_31/n2
*231 maprca/FAI_31/n3
*232 maprca/FAI_30/n1
*233 maprca/FAI_30/n2
*234 maprca/FAI_30/n3
*235 maprca/FAI_3/n1
*236 maprca/FAI_3/n2
*237 maprca/FAI_3/n3
*238 maprca/FAI_3/n4
*239 maprca/FAI_29/n1
*240 maprca/FAI_29/n2
*241 maprca/FAI_29/n3
*242 maprca/FAI_28/n1
*243 maprca/FAI_28/n2
*244 maprca/FAI_28/n3
*245 maprca/FAI_27/n1
*246 maprca/FAI_27/n2
*247 maprca/FAI_27/n3
*248 maprca/FAI_26/n1
*249 maprca/FAI_26/n2
*250 maprca/FAI_26/n3
*251 maprca/FAI_25/n1
*252 maprca/FAI_25/n2
*253 maprca/FAI_25/n3
*254 maprca/FAI_24/n1
*255 maprca/FAI_24/n2
*256 maprca/FAI_24/n3
*257 maprca/FAI_24/n4
*258 maprca/FAI_23/n1
*259 maprca/FAI_23/n2
*260 maprca/FAI_23/n3
*261 maprca/FAI_23/n4
*262 maprca/FAI_22/n1
*263 maprca/FAI_22/n2
*264 maprca/FAI_22/n3
*265 maprca/FAI_22/n4
*266 maprca/FAI_21/n1
*267 maprca/FAI_21/n2
*268 maprca/FAI_21/n3
*269 maprca/FAI_21/n4
*270 maprca/FAI_20/n1
*271 maprca/FAI_20/n2
*272 maprca/FAI_20/n3
*273 maprca/FAI_20/n4
*274 maprca/FAI_2/n1
*275 maprca/FAI_2/n2
*276 maprca/FAI_2/n3
*277 maprca/FAI_2/n4
*278 maprca/FAI_19/n1
*279 maprca/FAI_19/n2
*280 maprca/FAI_19/n3
*281 maprca/FAI_19/n4
*282 maprca/FAI_18/n1
*283 maprca/FAI_18/n2
*284 maprca/FAI_18/n3
*285 maprca/FAI_18/n4
*286 maprca/FAI_17/n1
*287 maprca/FAI_17/n2
*288 maprca/FAI_17/n3
*289 maprca/FAI_17/n4
*290 maprca/FAI_16/n1
*291 maprca/FAI_16/n2
*292 maprca/FAI_16/n3
*293 maprca/FAI_16/n4
*294 maprca/FAI_15/n1
*295 maprca/FAI_15/n2
*296 maprca/FAI_15/n3
*297 maprca/FAI_15/n4
*298 maprca/FAI_14/n1
*299 maprca/FAI_14/n2
*300 maprca/FAI_14/n3
*301 maprca/FAI_14/n4
*302 maprca/FAI_13/n1
*303 maprca/FAI_13/n2
*304 maprca/FAI_13/n3
*305 maprca/FAI_13/n4
*306 maprca/FAI_128/n1
*307 maprca/FAI_128/n2
*308 maprca/FAI_128/n3
*309 maprca/FAI_128/n4
*310 maprca/FAI_127/n1
*311 maprca/FAI_127/n2
*312 maprca/FAI_127/n3
*313 maprca/FAI_127/n4
*314 maprca/FAI_126/n1
*315 maprca/FAI_126/n2
*316 maprca/FAI_126/n3
*317 maprca/FAI_126/n4
*318 maprca/FAI_125/n1
*319 maprca/FAI_125/n2
*320 maprca/FAI_125/n3
*321 maprca/FAI_125/n4
*322 maprca/FAI_124/n1
*323 maprca/FAI_124/n2
*324 maprca/FAI_124/n3
*325 maprca/FAI_124/n4
*326 maprca/FAI_123/n1
*327 maprca/FAI_123/n2
*328 maprca/FAI_123/n3
*329 maprca/FAI_123/n4
*330 maprca/FAI_122/n1
*331 maprca/FAI_122/n2
*332 maprca/FAI_122/n3
*333 maprca/FAI_122/n4
*334 maprca/FAI_121/n1
*335 maprca/FAI_121/n2
*336 maprca/FAI_121/n3
*337 maprca/FAI_121/n4
*338 maprca/FAI_120/n1
*339 maprca/FAI_120/n2
*340 maprca/FAI_120/n3
*341 maprca/FAI_120/n4
*342 maprca/FAI_12/n1
*343 maprca/FAI_12/n2
*344 maprca/FAI_12/n3
*345 maprca/FAI_12/n4
*346 maprca/FAI_119/n1
*347 maprca/FAI_119/n2
*348 maprca/FAI_119/n3
*349 maprca/FAI_119/n4
*350 maprca/FAI_118/n1
*351 maprca/FAI_118/n2
*352 maprca/FAI_118/n3
*353 maprca/FAI_118/n4
*354 maprca/FAI_117/n1
*355 maprca/FAI_117/n2
*356 maprca/FAI_117/n3
*357 maprca/FAI_117/n4
*358 maprca/FAI_116/n1
*359 maprca/FAI_116/n2
*360 maprca/FAI_116/n3
*361 maprca/FAI_116/n4
*362 maprca/FAI_115/n1
*363 maprca/FAI_115/n2
*364 maprca/FAI_115/n3
*365 maprca/FAI_115/n4
*366 maprca/FAI_114/n1
*367 maprca/FAI_114/n2
*368 maprca/FAI_114/n3
*369 maprca/FAI_114/n4
*370 maprca/FAI_113/n1
*371 maprca/FAI_113/n2
*372 maprca/FAI_113/n3
*373 maprca/FAI_113/n4
*374 maprca/FAI_112/n1
*375 maprca/FAI_112/n2
*376 maprca/FAI_112/n3
*377 maprca/FAI_112/n4
*378 maprca/FAI_111/n1
*379 maprca/FAI_111/n2
*380 maprca/FAI_111/n3
*381 maprca/FAI_111/n4
*382 maprca/FAI_110/n1
*383 maprca/FAI_110/n2
*384 maprca/FAI_110/n3
*385 maprca/FAI_110/n4
*386 maprca/FAI_11/n1
*387 maprca/FAI_11/n2
*388 maprca/FAI_11/n3
*389 maprca/FAI_11/n4
*390 maprca/FAI_109/n1
*391 maprca/FAI_109/n2
*392 maprca/FAI_109/n3
*393 maprca/FAI_109/n4
*394 maprca/FAI_108/n1
*395 maprca/FAI_108/n2
*396 maprca/FAI_108/n3
*397 maprca/FAI_108/n4
*398 maprca/FAI_107/n1
*399 maprca/FAI_107/n2
*400 maprca/FAI_107/n3
*401 maprca/FAI_107/n4
*402 maprca/FAI_106/n1
*403 maprca/FAI_106/n2
*404 maprca/FAI_106/n3
*405 maprca/FAI_106/n4
*406 maprca/FAI_105/n1
*407 maprca/FAI_105/n2
*408 maprca/FAI_105/n3
*409 maprca/FAI_105/n4
*410 maprca/FAI_104/n1
*411 maprca/FAI_104/n2
*412 maprca/FAI_104/n3
*413 maprca/FAI_103/n1
*414 maprca/FAI_103/n2
*415 maprca/FAI_103/n3
*416 maprca/FAI_102/n1
*417 maprca/FAI_102/n2
*418 maprca/FAI_102/n3
*419 maprca/FAI_101/n1
*420 maprca/FAI_101/n2
*421 maprca/FAI_101/n3
*422 maprca/FAI_100/n1
*423 maprca/FAI_100/n2
*424 maprca/FAI_100/n3
*425 maprca/FAI_10/n1
*426 maprca/FAI_10/n2
*427 maprca/FAI_10/n3
*428 maprca/FAI_10/n4
*429 maprca/FAI_1/n1
*430 maprca/FAI_1/n2
*431 maprca/FAI_1/n3
*432 maprca/CTMP[100]
*433 maprca/CTMP[101]
*434 maprca/CTMP[102]
*435 maprca/CTMP[103]
*436 maprca/CTMP[104]
*437 maprca/CTMP[105]
*438 maprca/CTMP[106]
*439 maprca/CTMP[107]
*440 maprca/CTMP[108]
*441 maprca/CTMP[109]
*442 maprca/CTMP[10]
*443 maprca/CTMP[110]
*444 maprca/CTMP[111]
*445 maprca/CTMP[112]
*446 maprca/CTMP[113]
*447 maprca/CTMP[114]
*448 maprca/CTMP[115]
*449 maprca/CTMP[116]
*450 maprca/CTMP[117]
*451 maprca/CTMP[118]
*452 maprca/CTMP[119]
*453 maprca/CTMP[11]
*454 maprca/CTMP[120]
*455 maprca/CTMP[121]
*456 maprca/CTMP[122]
*457 maprca/CTMP[123]
*458 maprca/CTMP[124]
*459 maprca/CTMP[125]
*460 maprca/CTMP[126]
*461 maprca/CTMP[127]
*462 maprca/CTMP[12]
*463 maprca/CTMP[13]
*464 maprca/CTMP[14]
*465 maprca/CTMP[15]
*466 maprca/CTMP[16]
*467 maprca/CTMP[17]
*468 maprca/CTMP[18]
*469 maprca/CTMP[19]
*470 maprca/CTMP[1]
*471 maprca/CTMP[20]
*472 maprca/CTMP[21]
*473 maprca/CTMP[22]
*474 maprca/CTMP[23]
*475 maprca/CTMP[24]
*476 maprca/CTMP[25]
*477 maprca/CTMP[26]
*478 maprca/CTMP[27]
*479 maprca/CTMP[28]
*480 maprca/CTMP[29]
*481 maprca/CTMP[2]
*482 maprca/CTMP[30]
*483 maprca/CTMP[31]
*484 maprca/CTMP[32]
*485 maprca/CTMP[33]
*486 maprca/CTMP[34]
*487 maprca/CTMP[35]
*488 maprca/CTMP[36]
*489 maprca/CTMP[37]
*490 maprca/CTMP[38]
*491 maprca/CTMP[39]
*492 maprca/CTMP[3]
*493 maprca/CTMP[40]
*494 maprca/CTMP[41]
*495 maprca/CTMP[42]
*496 maprca/CTMP[43]
*497 maprca/CTMP[44]
*498 maprca/CTMP[45]
*499 maprca/CTMP[46]
*500 maprca/CTMP[47]
*501 maprca/CTMP[48]
*502 maprca/CTMP[49]
*503 maprca/CTMP[4]
*504 maprca/CTMP[50]
*505 maprca/CTMP[51]
*506 maprca/CTMP[52]
*507 maprca/CTMP[53]
*508 maprca/CTMP[54]
*509 maprca/CTMP[55]
*510 maprca/CTMP[56]
*511 maprca/CTMP[57]
*512 maprca/CTMP[58]
*513 maprca/CTMP[59]
*514 maprca/CTMP[5]
*515 maprca/CTMP[60]
*516 maprca/CTMP[61]
*517 maprca/CTMP[62]
*518 maprca/CTMP[63]
*519 maprca/CTMP[64]
*520 maprca/CTMP[65]
*521 maprca/CTMP[66]
*522 maprca/CTMP[67]
*523 maprca/CTMP[68]
*524 maprca/CTMP[69]
*525 maprca/CTMP[6]
*526 maprca/CTMP[70]
*527 maprca/CTMP[71]
*528 maprca/CTMP[72]
*529 maprca/CTMP[73]
*530 maprca/CTMP[74]
*531 maprca/CTMP[75]
*532 maprca/CTMP[76]
*533 maprca/CTMP[77]
*534 maprca/CTMP[78]
*535 maprca/CTMP[79]
*536 maprca/CTMP[7]
*537 maprca/CTMP[80]
*538 maprca/CTMP[81]
*539 maprca/CTMP[82]
*540 maprca/CTMP[83]
*541 maprca/CTMP[84]
*542 maprca/CTMP[85]
*543 maprca/CTMP[86]
*544 maprca/CTMP[87]
*545 maprca/CTMP[88]
*546 maprca/CTMP[89]
*547 maprca/CTMP[8]
*548 maprca/CTMP[90]
*549 maprca/CTMP[91]
*550 maprca/CTMP[92]
*551 maprca/CTMP[93]
*552 maprca/CTMP[94]
*553 maprca/CTMP[95]
*554 maprca/CTMP[96]
*555 maprca/CTMP[97]
*556 maprca/CTMP[98]
*557 maprca/CTMP[99]
*558 maprca/CTMP[9]
*559 ATMP[0]
*560 ATMP[100]
*561 ATMP[101]
*562 ATMP[102]
*563 ATMP[103]
*564 ATMP[104]
*565 ATMP[105]
*566 ATMP[106]
*567 ATMP[107]
*568 ATMP[108]
*569 ATMP[109]
*570 ATMP[10]
*571 ATMP[110]
*572 ATMP[111]
*573 ATMP[112]
*574 ATMP[113]
*575 ATMP[114]
*576 ATMP[115]
*577 ATMP[116]
*578 ATMP[117]
*579 ATMP[118]
*580 ATMP[119]
*581 ATMP[11]
*582 ATMP[120]
*583 ATMP[121]
*584 ATMP[122]
*585 ATMP[123]
*586 ATMP[124]
*587 ATMP[125]
*588 ATMP[126]
*589 ATMP[127]
*590 ATMP[12]
*591 ATMP[13]
*592 ATMP[14]
*593 ATMP[15]
*594 ATMP[16]
*595 ATMP[17]
*596 ATMP[18]
*597 ATMP[19]
*598 ATMP[1]
*599 ATMP[20]
*600 ATMP[21]
*601 ATMP[22]
*602 ATMP[23]
*603 ATMP[24]
*604 ATMP[25]
*605 ATMP[26]
*606 ATMP[27]
*607 ATMP[28]
*608 ATMP[29]
*609 ATMP[2]
*610 ATMP[30]
*611 ATMP[31]
*612 ATMP[32]
*613 ATMP[33]
*614 ATMP[34]
*615 ATMP[35]
*616 ATMP[36]
*617 ATMP[37]
*618 ATMP[38]
*619 ATMP[39]
*620 ATMP[3]
*621 ATMP[40]
*622 ATMP[41]
*623 ATMP[42]
*624 ATMP[43]
*625 ATMP[44]
*626 ATMP[45]
*627 ATMP[46]
*628 ATMP[47]
*629 ATMP[48]
*630 ATMP[49]
*631 ATMP[4]
*632 ATMP[50]
*633 ATMP[51]
*634 ATMP[52]
*635 ATMP[53]
*636 ATMP[54]
*637 ATMP[55]
*638 ATMP[56]
*639 ATMP[57]
*640 ATMP[58]
*641 ATMP[59]
*642 ATMP[5]
*643 ATMP[60]
*644 ATMP[61]
*645 ATMP[62]
*646 ATMP[63]
*647 ATMP[64]
*648 ATMP[65]
*649 ATMP[66]
*650 ATMP[67]
*651 ATMP[68]
*652 ATMP[69]
*653 ATMP[6]
*654 ATMP[70]
*655 ATMP[71]
*656 ATMP[72]
*657 ATMP[73]
*658 ATMP[74]
*659 ATMP[75]
*660 ATMP[76]
*661 ATMP[77]
*662 ATMP[78]
*663 ATMP[79]
*664 ATMP[7]
*665 ATMP[80]
*666 ATMP[81]
*667 ATMP[82]
*668 ATMP[83]
*669 ATMP[84]
*670 ATMP[85]
*671 ATMP[86]
*672 ATMP[87]
*673 ATMP[88]
*674 ATMP[89]
*675 ATMP[8]
*676 ATMP[90]
*677 ATMP[91]
*678 ATMP[92]
*679 ATMP[93]
*680 ATMP[94]
*681 ATMP[95]
*682 ATMP[96]
*683 ATMP[97]
*684 ATMP[98]
*685 ATMP[99]
*686 ATMP[9]
*687 A[0]
*688 A[100]
*689 A[101]
*690 A[102]
*691 A[103]
*692 A[104]
*693 A[105]
*694 A[106]
*695 A[107]
*696 A[108]
*697 A[109]
*698 A[10]
*699 A[110]
*700 A[111]
*701 A[112]
*702 A[113]
*703 A[114]
*704 A[115]
*705 A[116]
*706 A[117]
*707 A[118]
*708 A[119]
*709 A[11]
*710 A[120]
*711 A[121]
*712 A[122]
*713 A[123]
*714 A[124]
*715 A[125]
*716 A[126]
*717 A[127]
*718 A[12]
*719 A[13]
*720 A[14]
*721 A[15]
*722 A[16]
*723 A[17]
*724 A[18]
*725 A[19]
*726 A[1]
*727 A[20]
*728 A[21]
*729 A[22]
*730 A[23]
*731 A[24]
*732 A[25]
*733 A[26]
*734 A[27]
*735 A[28]
*736 A[29]
*737 A[2]
*738 A[30]
*739 A[31]
*740 A[32]
*741 A[33]
*742 A[34]
*743 A[35]
*744 A[36]
*745 A[37]
*746 A[38]
*747 A[39]
*748 A[3]
*749 A[40]
*750 A[41]
*751 A[42]
*752 A[43]
*753 A[44]
*754 A[45]
*755 A[46]
*756 A[47]
*757 A[48]
*758 A[49]
*759 A[4]
*760 A[50]
*761 A[51]
*762 A[52]
*763 A[53]
*764 A[54]
*765 A[55]
*766 A[56]
*767 A[57]
*768 A[58]
*769 A[59]
*770 A[5]
*771 A[60]
*772 A[61]
*773 A[62]
*774 A[63]
*775 A[64]
*776 A[65]
*777 A[66]
*778 A[67]
*779 A[68]
*780 A[69]
*781 A[6]
*782 A[70]
*783 A[71]
*784 A[72]
*785 A[73]
*786 A[74]
*787 A[75]
*788 A[76]
*789 A[77]
*790 A[78]
*791 A[79]
*792 A[7]
*793 A[80]
*794 A[81]
*795 A[82]
*796 A[83]
*797 A[84]
*798 A[85]
*799 A[86]
*800 A[87]
*801 A[88]
*802 A[89]
*803 A[8]
*804 A[90]
*805 A[91]
*806 A[92]
*807 A[93]
*808 A[94]
*809 A[95]
*810 A[96]
*811 A[97]
*812 A[98]
*813 A[99]
*814 A[9]
*815 BTMP[0]
*816 BTMP[100]
*817 BTMP[101]
*818 BTMP[102]
*819 BTMP[103]
*820 BTMP[104]
*821 BTMP[105]
*822 BTMP[106]
*823 BTMP[107]
*824 BTMP[108]
*825 BTMP[109]
*826 BTMP[10]
*827 BTMP[110]
*828 BTMP[111]
*829 BTMP[112]
*830 BTMP[113]
*831 BTMP[114]
*832 BTMP[115]
*833 BTMP[116]
*834 BTMP[117]
*835 BTMP[118]
*836 BTMP[119]
*837 BTMP[11]
*838 BTMP[120]
*839 BTMP[121]
*840 BTMP[122]
*841 BTMP[123]
*842 BTMP[124]
*843 BTMP[125]
*844 BTMP[126]
*845 BTMP[127]
*846 BTMP[12]
*847 BTMP[13]
*848 BTMP[14]
*849 BTMP[15]
*850 BTMP[16]
*851 BTMP[17]
*852 BTMP[18]
*853 BTMP[19]
*854 BTMP[1]
*855 BTMP[20]
*856 BTMP[21]
*857 BTMP[22]
*858 BTMP[23]
*859 BTMP[24]
*860 BTMP[25]
*861 BTMP[26]
*862 BTMP[27]
*863 BTMP[28]
*864 BTMP[29]
*865 BTMP[2]
*866 BTMP[30]
*867 BTMP[31]
*868 BTMP[32]
*869 BTMP[33]
*870 BTMP[34]
*871 BTMP[35]
*872 BTMP[36]
*873 BTMP[37]
*874 BTMP[38]
*875 BTMP[39]
*876 BTMP[3]
*877 BTMP[40]
*878 BTMP[41]
*879 BTMP[42]
*880 BTMP[43]
*881 BTMP[44]
*882 BTMP[45]
*883 BTMP[46]
*884 BTMP[47]
*885 BTMP[48]
*886 BTMP[49]
*887 BTMP[4]
*888 BTMP[50]
*889 BTMP[51]
*890 BTMP[52]
*891 BTMP[53]
*892 BTMP[54]
*893 BTMP[55]
*894 BTMP[56]
*895 BTMP[57]
*896 BTMP[58]
*897 BTMP[59]
*898 BTMP[5]
*899 BTMP[60]
*900 BTMP[61]
*901 BTMP[62]
*902 BTMP[63]
*903 BTMP[64]
*904 BTMP[65]
*905 BTMP[66]
*906 BTMP[67]
*907 BTMP[68]
*908 BTMP[69]
*909 BTMP[6]
*910 BTMP[70]
*911 BTMP[71]
*912 BTMP[72]
*913 BTMP[73]
*914 BTMP[74]
*915 BTMP[75]
*916 BTMP[76]
*917 BTMP[77]
*918 BTMP[78]
*919 BTMP[79]
*920 BTMP[7]
*921 BTMP[80]
*922 BTMP[81]
*923 BTMP[82]
*924 BTMP[83]
*925 BTMP[84]
*926 BTMP[85]
*927 BTMP[86]
*928 BTMP[87]
*929 BTMP[88]
*930 BTMP[89]
*931 BTMP[8]
*932 BTMP[90]
*933 BTMP[91]
*934 BTMP[92]
*935 BTMP[93]
*936 BTMP[94]
*937 BTMP[95]
*938 BTMP[96]
*939 BTMP[97]
*940 BTMP[98]
*941 BTMP[99]
*942 BTMP[9]
*943 B[0]
*944 B[100]
*945 B[101]
*946 B[102]
*947 B[103]
*948 B[104]
*949 B[105]
*950 B[106]
*951 B[107]
*952 B[108]
*953 B[109]
*954 B[10]
*955 B[110]
*956 B[111]
*957 B[112]
*958 B[113]
*959 B[114]
*960 B[115]
*961 B[116]
*962 B[117]
*963 B[118]
*964 B[119]
*965 B[11]
*966 B[120]
*967 B[121]
*968 B[122]
*969 B[123]
*970 B[124]
*971 B[125]
*972 B[126]
*973 B[127]
*974 B[12]
*975 B[13]
*976 B[14]
*977 B[15]
*978 B[16]
*979 B[17]
*980 B[18]
*981 B[19]
*982 B[1]
*983 B[20]
*984 B[21]
*985 B[22]
*986 B[23]
*987 B[24]
*988 B[25]
*989 B[26]
*990 B[27]
*991 B[28]
*992 B[29]
*993 B[2]
*994 B[30]
*995 B[31]
*996 B[32]
*997 B[33]
*998 B[34]
*999 B[35]
*1000 B[36]
*1001 B[37]
*1002 B[38]
*1003 B[39]
*1004 B[3]
*1005 B[40]
*1006 B[41]
*1007 B[42]
*1008 B[43]
*1009 B[44]
*1010 B[45]
*1011 B[46]
*1012 B[47]
*1013 B[48]
*1014 B[49]
*1015 B[4]
*1016 B[50]
*1017 B[51]
*1018 B[52]
*1019 B[53]
*1020 B[54]
*1021 B[55]
*1022 B[56]
*1023 B[57]
*1024 B[58]
*1025 B[59]
*1026 B[5]
*1027 B[60]
*1028 B[61]
*1029 B[62]
*1030 B[63]
*1031 B[64]
*1032 B[65]
*1033 B[66]
*1034 B[67]
*1035 B[68]
*1036 B[69]
*1037 B[6]
*1038 B[70]
*1039 B[71]
*1040 B[72]
*1041 B[73]
*1042 B[74]
*1043 B[75]
*1044 B[76]
*1045 B[77]
*1046 B[78]
*1047 B[79]
*1048 B[7]
*1049 B[80]
*1050 B[81]
*1051 B[82]
*1052 B[83]
*1053 B[84]
*1054 B[85]
*1055 B[86]
*1056 B[87]
*1057 B[88]
*1058 B[89]
*1059 B[8]
*1060 B[90]
*1061 B[91]
*1062 B[92]
*1063 B[93]
*1064 B[94]
*1065 B[95]
*1066 B[96]
*1067 B[97]
*1068 B[98]
*1069 B[99]
*1070 B[9]
*1071 CITMP
*1072 CLK
*1073 CLK__L1_N0
*1074 CLK__L2_N0
*1075 CLK__L2_N1
*1076 CLK__L2_N10
*1077 CLK__L2_N11
*1078 CLK__L2_N2
*1079 CLK__L2_N3
*1080 CLK__L2_N4
*1081 CLK__L2_N5
*1082 CLK__L2_N6
*1083 CLK__L2_N7
*1084 CLK__L2_N8
*1085 CLK__L2_N9
*1086 COTMP
*1087 Ci
*1088 Co
*1089 FE_OFN0_n386
*1090 FE_OFN1_n386
*1091 FE_OFN2_n386
*1092 FE_OFN3_n386
*1093 FE_OFN4_n386
*1094 FE_OFN5_n386
*1095 FE_PHN1000_A_119_
*1096 FE_PHN1001_B_23_
*1097 FE_PHN1002_A_56_
*1098 FE_PHN1003_A_127_
*1099 FE_PHN1004_B_30_
*1100 FE_PHN1005_B_25_
*1101 FE_PHN1006_A_45_
*1102 FE_PHN1007_A_87_
*1103 FE_PHN1008_B_33_
*1104 FE_PHN1009_B_65_
*1105 FE_PHN100_B_91_
*1106 FE_PHN1010_A_69_
*1107 FE_PHN1011_B_119_
*1108 FE_PHN1012_A_112_
*1109 FE_PHN1013_B_28_
*1110 FE_PHN1014_B_61_
*1111 FE_PHN1015_A_49_
*1112 FE_PHN1016_A_111_
*1113 FE_PHN1017_B_36_
*1114 FE_PHN1018_B_87_
*1115 FE_PHN1019_A_34_
*1116 FE_PHN101_A_19_
*1117 FE_PHN1020_A_102_
*1118 FE_PHN1021_B_91_
*1119 FE_PHN1022_B_49_
*1120 FE_PHN1023_A_32_
*1121 FE_PHN1024_B_47_
*1122 FE_PHN1025_B_103_
*1123 FE_PHN1026_A_61_
*1124 FE_PHN1027_A_68_
*1125 FE_PHN1028_B_5_
*1126 FE_PHN1029_B_90_
*1127 FE_PHN102_A_78_
*1128 FE_PHN1030_A_98_
*1129 FE_PHN1031_B_32_
*1130 FE_PHN1032_B_35_
*1131 FE_PHN1033_A_76_
*1132 FE_PHN1034_B_88_
*1133 FE_PHN1035_A_88_
*1134 FE_PHN1036_B_94_
*1135 FE_PHN1037_RST
*1136 FE_PHN1038_A_46_
*1137 FE_PHN1039_B_45_
*1138 FE_PHN103_B_83_
*1139 FE_PHN1040_B_40_
*1140 FE_PHN1041_A_113_
*1141 FE_PHN1042_B_112_
*1142 FE_PHN1043_B_2_
*1143 FE_PHN1044_B_27_
*1144 FE_PHN1045_A_72_
*1145 FE_PHN1046_B_48_
*1146 FE_PHN1047_A_44_
*1147 FE_PHN1048_A_43_
*1148 FE_PHN1049_A_26_
*1149 FE_PHN104_B_105_
*1150 FE_PHN1050_B_26_
*1151 FE_PHN1051_A_12_
*1152 FE_PHN1052_B_29_
*1153 FE_PHN1053_A_48_
*1154 FE_PHN1054_A_16_
*1155 FE_PHN1055_A_36_
*1156 FE_PHN1056_B_50_
*1157 FE_PHN1057_A_37_
*1158 FE_PHN1058_B_41_
*1159 FE_PHN1059_B_114_
*1160 FE_PHN105_A_79_
*1161 FE_PHN1060_A_40_
*1162 FE_PHN1061_A_45_
*1163 FE_PHN1062_B_0_
*1164 FE_PHN1063_A_35_
*1165 FE_PHN1064_B_110_
*1166 FE_PHN1065_Ci
*1167 FE_PHN1066_B_9_
*1168 FE_PHN1067_A_47_
*1169 FE_PHN1068_A_1_
*1170 FE_PHN1069_A_24_
*1171 FE_PHN106_A_80_
*1172 FE_PHN1070_B_14_
*1173 FE_PHN1071_A_71_
*1174 FE_PHN1072_B_10_
*1175 FE_PHN1073_B_115_
*1176 FE_PHN1074_B_37_
*1177 FE_PHN1075_A_5_
*1178 FE_PHN1076_A_114_
*1179 FE_PHN1077_A_50_
*1180 FE_PHN1078_A_10_
*1181 FE_PHN1079_B_31_
*1182 FE_PHN107_B_81_
*1183 FE_PHN1080_B_39_
*1184 FE_PHN1081_A_33_
*1185 FE_PHN1082_A_27_
*1186 FE_PHN1083_B_85_
*1187 FE_PHN1084_A_42_
*1188 FE_PHN1085_A_31_
*1189 FE_PHN1086_A_112_
*1190 FE_PHN1087_B_42_
*1191 FE_PHN1088_A_9_
*1192 FE_PHN1089_B_46_
*1193 FE_PHN108_A_119_
*1194 FE_PHN1090_A_105_
*1195 FE_PHN1091_A_28_
*1196 FE_PHN1092_B_86_
*1197 FE_PHN1093_A_55_
*1198 FE_PHN1094_A_52_
*1199 FE_PHN1095_B_33_
*1200 FE_PHN1096_A_59_
*1201 FE_PHN1097_A_41_
*1202 FE_PHN1098_A_53_
*1203 FE_PHN1099_A_85_
*1204 FE_PHN109_B_57_
*1205 FE_PHN10_A_12_
*1206 FE_PHN1100_B_113_
*1207 FE_PHN1101_B_36_
*1208 FE_PHN1102_B_30_
*1209 FE_PHN1103_A_11_
*1210 FE_PHN1104_B_83_
*1211 FE_PHN1105_A_115_
*1212 FE_PHN1106_B_18_
*1213 FE_PHN1107_B_49_
*1214 FE_PHN1108_A_86_
*1215 FE_PHN1109_B_11_
*1216 FE_PHN110_B_127_
*1217 FE_PHN1110_B_73_
*1218 FE_PHN1111_B_77_
*1219 FE_PHN1112_A_17_
*1220 FE_PHN1113_A_38_
*1221 FE_PHN1114_B_6_
*1222 FE_PHN1115_A_74_
*1223 FE_PHN1116_B_87_
*1224 FE_PHN1117_A_39_
*1225 FE_PHN1118_A_54_
*1226 FE_PHN1119_B_4_
*1227 FE_PHN111_B_7_
*1228 FE_PHN1120_A_73_
*1229 FE_PHN1121_A_8_
*1230 FE_PHN1122_A_81_
*1231 FE_PHN1123_A_122_
*1232 FE_PHN1124_A_56_
*1233 FE_PHN1125_B_54_
*1234 FE_PHN1126_A_7_
*1235 FE_PHN1127_A_15_
*1236 FE_PHN1128_A_34_
*1237 FE_PHN1129_B_82_
*1238 FE_PHN112_B_8_
*1239 FE_PHN1130_B_3_
*1240 FE_PHN1131_B_44_
*1241 FE_PHN1132_A_82_
*1242 FE_PHN1133_B_106_
*1243 FE_PHN1134_B_12_
*1244 FE_PHN1135_B_20_
*1245 FE_PHN1136_B_90_
*1246 FE_PHN1137_A_62_
*1247 FE_PHN1138_A_51_
*1248 FE_PHN1139_B_84_
*1249 FE_PHN113_B_125_
*1250 FE_PHN1140_A_90_
*1251 FE_PHN1141_B_55_
*1252 FE_PHN1142_A_70_
*1253 FE_PHN1143_B_8_
*1254 FE_PHN1144_A_84_
*1255 FE_PHN1145_B_70_
*1256 FE_PHN1146_B_19_
*1257 FE_PHN1147_A_87_
*1258 FE_PHN1148_B_105_
*1259 FE_PHN1149_B_72_
*1260 FE_PHN114_A_29_
*1261 FE_PHN1150_A_2_
*1262 FE_PHN1151_A_30_
*1263 FE_PHN1152_A_101_
*1264 FE_PHN1153_A_107_
*1265 FE_PHN1154_B_64_
*1266 FE_PHN1155_B_74_
*1267 FE_PHN1156_B_76_
*1268 FE_PHN1157_B_127_
*1269 FE_PHN1158_B_53_
*1270 FE_PHN1159_B_75_
*1271 FE_PHN115_B_25_
*1272 FE_PHN1160_A_75_
*1273 FE_PHN1161_A_109_
*1274 FE_PHN1162_B_95_
*1275 FE_PHN1163_A_96_
*1276 FE_PHN1164_B_98_
*1277 FE_PHN1165_B_60_
*1278 FE_PHN1166_A_91_
*1279 FE_PHN1167_A_111_
*1280 FE_PHN1168_B_91_
*1281 FE_PHN1169_A_118_
*1282 FE_PHN116_B_59_
*1283 FE_PHN1170_A_65_
*1284 FE_PHN1171_A_60_
*1285 FE_PHN1172_B_66_
*1286 FE_PHN1173_A_103_
*1287 FE_PHN1174_A_66_
*1288 FE_PHN1175_B_52_
*1289 FE_PHN1176_A_95_
*1290 FE_PHN1177_A_110_
*1291 FE_PHN1178_A_29_
*1292 FE_PHN1179_B_71_
*1293 FE_PHN117_B_118_
*1294 FE_PHN1180_A_80_
*1295 FE_PHN1181_A_121_
*1296 FE_PHN1182_B_122_
*1297 FE_PHN1183_B_126_
*1298 FE_PHN1184_B_121_
*1299 FE_PHN1185_A_125_
*1300 FE_PHN1186_B_63_
*1301 FE_PHN1187_A_119_
*1302 FE_PHN1188_B_124_
*1303 FE_PHN1189_A_58_
*1304 FE_PHN118_B_119_
*1305 FE_PHN1190_B_65_
*1306 FE_PHN1191_A_124_
*1307 FE_PHN1192_B_118_
*1308 FE_PHN1193_B_119_
*1309 FE_PHN1194_B_61_
*1310 FE_PHN1195_B_92_
*1311 FE_PHN1196_B_99_
*1312 FE_PHN1197_B_104_
*1313 FE_PHN1198_A_104_
*1314 FE_PHN1199_B_56_
*1315 FE_PHN119_B_96_
*1316 FE_PHN11_B_94_
*1317 FE_PHN1200_B_62_
*1318 FE_PHN1201_B_123_
*1319 FE_PHN1202_B_69_
*1320 FE_PHN1203_B_108_
*1321 FE_PHN1204_A_102_
*1322 FE_PHN1205_A_63_
*1323 FE_PHN1206_A_108_
*1324 FE_PHN1207_A_126_
*1325 FE_PHN1208_B_57_
*1326 FE_PHN1209_B_59_
*1327 FE_PHN120_B_90_
*1328 FE_PHN1210_B_101_
*1329 FE_PHN1211_B_125_
*1330 FE_PHN1212_B_58_
*1331 FE_PHN1213_A_120_
*1332 FE_PHN1214_A_127_
*1333 FE_PHN1215_B_51_
*1334 FE_PHN1216_B_109_
*1335 FE_PHN1217_A_68_
*1336 FE_PHN1218_A_61_
*1337 FE_PHN1219_B_103_
*1338 FE_PHN121_A_88_
*1339 FE_PHN1220_A_123_
*1340 FE_PHN1221_A_92_
*1341 FE_PHN1222_B_117_
*1342 FE_PHN1223_B_120_
*1343 FE_PHN1224_A_99_
*1344 FE_PHN1225_A_57_
*1345 FE_PHN1226_A_64_
*1346 FE_PHN1227_A_117_
*1347 FE_PHN1228_B_100_
*1348 FE_PHN1229_A_69_
*1349 FE_PHN122_Ci
*1350 FE_PHN1230_B_32_
*1351 FE_PHN1231_B_97_
*1352 FE_PHN1232_A_100_
*1353 FE_PHN1233_B_67_
*1354 FE_PHN1234_B_68_
*1355 FE_PHN1235_B_102_
*1356 FE_PHN1236_A_67_
*1357 FE_PHN1237_B_107_
*1358 FE_PHN1238_A_98_
*1359 FE_PHN1239_B_93_
*1360 FE_PHN123_B_52_
*1361 FE_PHN1240_A_93_
*1362 FE_PHN1241_B_96_
*1363 FE_PHN1242_A_89_
*1364 FE_PHN1243_A_116_
*1365 FE_PHN1244_B_94_
*1366 FE_PHN1245_B_116_
*1367 FE_PHN1246_A_32_
*1368 FE_PHN1247_A_106_
*1369 FE_PHN1248_A_94_
*1370 FE_PHN1249_A_97_
*1371 FE_PHN124_A_51_
*1372 FE_PHN1250_B_89_
*1373 FE_PHN1251_A_4_
*1374 FE_PHN1252_B_35_
*1375 FE_PHN1253_A_14_
*1376 FE_PHN1254_A_49_
*1377 FE_PHN1255_A_79_
*1378 FE_PHN1256_A_25_
*1379 FE_PHN1257_B_15_
*1380 FE_PHN1258_A_83_
*1381 FE_PHN1259_B_1_
*1382 FE_PHN125_A_59_
*1383 FE_PHN1260_B_111_
*1384 FE_PHN1261_B_28_
*1385 FE_PHN1262_B_47_
*1386 FE_PHN1263_B_88_
*1387 FE_PHN1264_A_3_
*1388 FE_PHN1265_A_6_
*1389 FE_PHN1266_B_7_
*1390 FE_PHN126_B_100_
*1391 FE_PHN127_A_5_
*1392 FE_PHN128_A_40_
*1393 FE_PHN129_B_58_
*1394 FE_PHN12_B_3_
*1395 FE_PHN130_A_95_
*1396 FE_PHN131_B_64_
*1397 FE_PHN132_B_101_
*1398 FE_PHN133_A_23_
*1399 FE_PHN134_A_87_
*1400 FE_PHN135_A_65_
*1401 FE_PHN136_A_99_
*1402 FE_PHN137_A_75_
*1403 FE_PHN138_A_37_
*1404 FE_PHN139_A_124_
*1405 FE_PHN13_B_13_
*1406 FE_PHN140_B_60_
*1407 FE_PHN141_A_60_
*1408 FE_PHN142_B_40_
*1409 FE_PHN143_A_111_
*1410 FE_PHN144_A_58_
*1411 FE_PHN145_B_92_
*1412 FE_PHN146_A_92_
*1413 FE_PHN147_A_63_
*1414 FE_PHN148_A_91_
*1415 FE_PHN149_A_127_
*1416 FE_PHN14_B_27_
*1417 FE_PHN150_A_125_
*1418 FE_PHN151_A_10_
*1419 FE_PHN152_B_9_
*1420 FE_PHN153_B_61_
*1421 FE_PHN154_A_61_
*1422 FE_PHN155_A_14_
*1423 FE_PHN156_A_52_
*1424 FE_PHN157_B_62_
*1425 FE_PHN158_B_74_
*1426 FE_PHN159_B_35_
*1427 FE_PHN15_A_27_
*1428 FE_PHN160_B_82_
*1429 FE_PHN161_B_70_
*1430 FE_PHN162_B_103_
*1431 FE_PHN163_A_83_
*1432 FE_PHN164_A_114_
*1433 FE_PHN165_B_38_
*1434 FE_PHN166_A_20_
*1435 FE_PHN167_B_20_
*1436 FE_PHN168_B_32_
*1437 FE_PHN169_A_55_
*1438 FE_PHN16_A_120_
*1439 FE_PHN170_A_89_
*1440 FE_PHN171_B_4_
*1441 FE_PHN172_A_4_
*1442 FE_PHN173_B_124_
*1443 FE_PHN174_A_44_
*1444 FE_PHN175_B_44_
*1445 FE_PHN176_B_97_
*1446 FE_PHN177_B_95_
*1447 FE_PHN178_B_45_
*1448 FE_PHN179_B_63_
*1449 FE_PHN17_B_47_
*1450 FE_PHN180_B_73_
*1451 FE_PHN181_A_57_
*1452 FE_PHN182_A_73_
*1453 FE_PHN183_A_25_
*1454 FE_PHN184_A_115_
*1455 FE_PHN185_B_37_
*1456 FE_PHN186_B_108_
*1457 FE_PHN187_A_108_
*1458 FE_PHN188_B_11_
*1459 FE_PHN189_B_65_
*1460 FE_PHN18_B_116_
*1461 FE_PHN190_A_72_
*1462 FE_PHN191_B_22_
*1463 FE_PHN192_B_14_
*1464 FE_PHN193_B_29_
*1465 FE_PHN194_B_104_
*1466 FE_PHN195_A_9_
*1467 FE_PHN196_B_18_
*1468 FE_PHN197_B_23_
*1469 FE_PHN198_B_41_
*1470 FE_PHN199_B_48_
*1471 FE_PHN19_A_34_
*1472 FE_PHN200_B_56_
*1473 FE_PHN201_A_18_
*1474 FE_PHN202_A_56_
*1475 FE_PHN203_B_30_
*1476 FE_PHN204_B_39_
*1477 FE_PHN205_A_24_
*1478 FE_PHN206_A_118_
*1479 FE_PHN207_B_69_
*1480 FE_PHN208_B_55_
*1481 FE_PHN209_A_41_
*1482 FE_PHN20_A_64_
*1483 FE_PHN210_B_106_
*1484 FE_PHN211_A_113_
*1485 FE_PHN212_B_28_
*1486 FE_PHN213_B_31_
*1487 FE_PHN214_B_50_
*1488 FE_PHN215_B_115_
*1489 FE_PHN216_A_77_
*1490 FE_PHN217_B_33_
*1491 FE_PHN218_A_69_
*1492 FE_PHN219_B_114_
*1493 FE_PHN21_A_21_
*1494 FE_PHN220_A_31_
*1495 FE_PHN221_B_19_
*1496 FE_PHN222_B_49_
*1497 FE_PHN223_B_51_
*1498 FE_PHN224_A_82_
*1499 FE_PHN225_B_75_
*1500 FE_PHN226_B_87_
*1501 FE_PHN227_B_53_
*1502 FE_PHN228_B_67_
*1503 FE_PHN229_B_86_
*1504 FE_PHN22_A_84_
*1505 FE_PHN230_B_111_
*1506 FE_PHN231_A_54_
*1507 FE_PHN232_B_93_
*1508 FE_PHN233_A_93_
*1509 FE_PHN234_B_85_
*1510 FE_PHN235_A_85_
*1511 FE_PHN236_A_81_
*1512 FE_PHN237_A_67_
*1513 FE_PHN238_B_0_
*1514 FE_PHN239_B_121_
*1515 FE_PHN23_A_122_
*1516 FE_PHN240_A_36_
*1517 FE_PHN241_B_98_
*1518 FE_PHN242_B_117_
*1519 FE_PHN243_B_99_
*1520 FE_PHN244_B_110_
*1521 FE_PHN245_B_126_
*1522 FE_PHN246_B_6_
*1523 FE_PHN247_B_113_
*1524 FE_PHN248_A_8_
*1525 FE_PHN249_A_74_
*1526 FE_PHN24_B_42_
*1527 FE_PHN250_B_5_
*1528 FE_PHN251_B_107_
*1529 FE_PHN252_B_112_
*1530 FE_PHN253_A_71_
*1531 FE_PHN254_A_47_
*1532 FE_PHN255_A_107_
*1533 FE_PHN256_A_46_
*1534 FE_PHN257_B_54_
*1535 FE_PHN258_A_33_
*1536 FE_PHN259_B_68_
*1537 FE_PHN25_A_110_
*1538 FE_PHN260_A_32_
*1539 FE_PHN261_A_68_
*1540 FE_PHN262_A_70_
*1541 FE_PHN263_RST
*1542 FE_PHN264_B_72_
*1543 FE_PHN265_A_89_
*1544 FE_PHN266_B_34_
*1545 FE_PHN267_B_93_
*1546 FE_PHN268_A_5_
*1547 FE_PHN269_A_106_
*1548 FE_PHN26_A_101_
*1549 FE_PHN270_A_39_
*1550 FE_PHN271_A_50_
*1551 FE_PHN272_B_43_
*1552 FE_PHN273_B_57_
*1553 FE_PHN274_A_3_
*1554 FE_PHN275_A_118_
*1555 FE_PHN276_A_114_
*1556 FE_PHN277_A_59_
*1557 FE_PHN278_A_29_
*1558 FE_PHN279_A_47_
*1559 FE_PHN27_B_17_
*1560 FE_PHN280_A_126_