*SPEF "IEEE 1481-1998"
*DESIGN "P4adder"
*DATE "Thu Jul 21 20:45:21 2016"
*VENDOR "Cadence Design Systems, Inc."
*PROGRAM "Encounter"
*VERSION "13.13-s017_1"
*DESIGN_FLOW "COUPLING C" "PIN_CAP NONE" "NAME_SCOPE LOCAL"
*DIVIDER /
*DELIMITER :
*BUS_DELIMITER []
*T_UNIT 1 NS
*C_UNIT 1 PF
*R_UNIT 1 OHM
*L_UNIT 1 HENRY

// MMMC spef file for corner 'standard'

*NAME_MAP

*1 Usparce_tree/blkpg_4_2_1/n1
*2 Usparce_tree/blkpg_4_2_0/n1
*3 Usparce_tree/blkpg_3_4/n1
*4 Usparce_tree/blkpg_3_3/n1
*5 Usparce_tree/blkpg_3_2/n1
*6 Usparce_tree/blkpg_2_8/n1
*7 Usparce_tree/blkpg_2_7/n1
*8 Usparce_tree/blkpg_2_6/n1
*9 Usparce_tree/blkpg_2_5/n1
*10 Usparce_tree/blkpg_2_4/n1
*11 Usparce_tree/blkpg_2_3/n1
*12 Usparce_tree/blkpg_2_2/n1
*13 Usparce_tree/blkpg_1_9/n1
*14 Usparce_tree/blkpg_1_8/n1
*15 Usparce_tree/blkpg_1_7/n1
*16 Usparce_tree/blkpg_1_6/n1
*17 Usparce_tree/blkpg_1_5/n1
*18 Usparce_tree/blkpg_1_4/n1
*19 Usparce_tree/blkpg_1_3/n1
*20 Usparce_tree/blkpg_1_2/n2
*21 Usparce_tree/blkpg_1_16/n1
*22 Usparce_tree/blkpg_1_15/n1
*23 Usparce_tree/blkpg_1_14/n1
*24 Usparce_tree/blkpg_1_13/n1
*25 Usparce_tree/blkpg_1_12/n1
*26 Usparce_tree/blkpg_1_11/n1
*27 Usparce_tree/blkpg_1_10/n1
*28 Usparce_tree/blkg_Cin_0/n2
*29 Usparce_tree/blkg_5_1_3/n1
*30 Usparce_tree/blkg_5_1_2/n1
*31 Usparce_tree/blkg_5_1_1/n1
*32 Usparce_tree/blkg_5_1_0/n1
*33 Usparce_tree/blkg_4_1_1/n1
*34 Usparce_tree/blkg_4_1_0/n1
*35 Usparce_tree/blkg_3_1/n1
*36 Usparce_tree/blkg_2_1/n1
*37 Usparce_tree/blkg_1_1/n1
*38 Usparce_tree/g1
*39 Usparce_tree/p1
*40 Usparce_tree/matrixG\[10\]\[10\]
*41 Usparce_tree/matrixG\[10\]\[9\]
*42 Usparce_tree/matrixG\[11\]\[11\]
*43 Usparce_tree/matrixG\[12\]\[11\]
*44 Usparce_tree/matrixG\[12\]\[12\]
*45 Usparce_tree/matrixG\[12\]\[9\]
*46 Usparce_tree/matrixG\[13\]\[13\]
*47 Usparce_tree/matrixG\[14\]\[13\]
*48 Usparce_tree/matrixG\[14\]\[14\]
*49 Usparce_tree/matrixG\[15\]\[15\]
*50 Usparce_tree/matrixG\[16\]\[13\]
*51 Usparce_tree/matrixG\[16\]\[15\]
*52 Usparce_tree/matrixG\[16\]\[16\]
*53 Usparce_tree/matrixG\[16\]\[9\]
*54 Usparce_tree/matrixG\[17\]\[17\]
*55 Usparce_tree/matrixG\[18\]\[17\]
*56 Usparce_tree/matrixG\[18\]\[18\]
*57 Usparce_tree/matrixG\[19\]\[19\]
*58 Usparce_tree/matrixG\[1\]\[1\]
*59 Usparce_tree/matrixG\[20\]\[17\]
*60 Usparce_tree/matrixG\[20\]\[19\]
*61 Usparce_tree/matrixG\[20\]\[20\]
*62 Usparce_tree/matrixG\[21\]\[21\]
*63 Usparce_tree/matrixG\[22\]\[21\]
*64 Usparce_tree/matrixG\[22\]\[22\]
*65 Usparce_tree/matrixG\[23\]\[23\]
*66 Usparce_tree/matrixG\[24\]\[17\]
*67 Usparce_tree/matrixG\[24\]\[21\]
*68 Usparce_tree/matrixG\[24\]\[23\]
*69 Usparce_tree/matrixG\[24\]\[24\]
*70 Usparce_tree/matrixG\[25\]\[25\]
*71 Usparce_tree/matrixG\[26\]\[25\]
*72 Usparce_tree/matrixG\[26\]\[26\]
*73 Usparce_tree/matrixG\[27\]\[27\]
*74 Usparce_tree/matrixG\[28\]\[17\]
*75 Usparce_tree/matrixG\[28\]\[25\]
*76 Usparce_tree/matrixG\[28\]\[27\]
*77 Usparce_tree/matrixG\[28\]\[28\]
*78 Usparce_tree/matrixG\[29\]\[29\]
*79 Usparce_tree/matrixG\[2\]\[1\]
*80 Usparce_tree/matrixG\[2\]\[2\]
*81 Usparce_tree/matrixG\[30\]\[29\]
*82 Usparce_tree/matrixG\[30\]\[30\]
*83 Usparce_tree/matrixG\[31\]\[31\]
*84 Usparce_tree/matrixG\[32\]\[17\]
*85 Usparce_tree/matrixG\[32\]\[25\]
*86 Usparce_tree/matrixG\[32\]\[29\]
*87 Usparce_tree/matrixG\[32\]\[31\]
*88 Usparce_tree/matrixG\[32\]\[32\]
*89 Usparce_tree/matrixG\[3\]\[3\]
*90 Usparce_tree/matrixG\[4\]\[3\]
*91 Usparce_tree/matrixG\[4\]\[4\]
*92 Usparce_tree/matrixG\[5\]\[5\]
*93 Usparce_tree/matrixG\[6\]\[5\]
*94 Usparce_tree/matrixG\[6\]\[6\]
*95 Usparce_tree/matrixG\[7\]\[7\]
*96 Usparce_tree/matrixG\[8\]\[5\]
*97 Usparce_tree/matrixG\[8\]\[7\]
*98 Usparce_tree/matrixG\[8\]\[8\]
*99 Usparce_tree/matrixG\[9\]\[9\]
*100 Usparce_tree/matrixP\[10\]\[10\]
*101 Usparce_tree/matrixP\[10\]\[9\]
*102 Usparce_tree/matrixP\[11\]\[11\]
*103 Usparce_tree/matrixP\[12\]\[11\]
*104 Usparce_tree/matrixP\[12\]\[12\]
*105 Usparce_tree/matrixP\[12\]\[9\]
*106 Usparce_tree/matrixP\[13\]\[13\]
*107 Usparce_tree/matrixP\[14\]\[13\]
*108 Usparce_tree/matrixP\[14\]\[14\]
*109 Usparce_tree/matrixP\[15\]\[15\]
*110 Usparce_tree/matrixP\[16\]\[13\]
*111 Usparce_tree/matrixP\[16\]\[15\]
*112 Usparce_tree/matrixP\[16\]\[16\]
*113 Usparce_tree/matrixP\[16\]\[9\]
*114 Usparce_tree/matrixP\[17\]\[17\]
*115 Usparce_tree/matrixP\[18\]\[17\]
*116 Usparce_tree/matrixP\[18\]\[18\]
*117 Usparce_tree/matrixP\[19\]\[19\]
*118 Usparce_tree/matrixP\[20\]\[17\]
*119 Usparce_tree/matrixP\[20\]\[19\]
*120 Usparce_tree/matrixP\[20\]\[20\]
*121 Usparce_tree/matrixP\[21\]\[21\]
*122 Usparce_tree/matrixP\[22\]\[21\]
*123 Usparce_tree/matrixP\[22\]\[22\]
*124 Usparce_tree/matrixP\[23\]\[23\]
*125 Usparce_tree/matrixP\[24\]\[17\]
*126 Usparce_tree/matrixP\[24\]\[21\]
*127 Usparce_tree/matrixP\[24\]\[23\]
*128 Usparce_tree/matrixP\[24\]\[24\]
*129 Usparce_tree/matrixP\[25\]\[25\]
*130 Usparce_tree/matrixP\[26\]\[25\]
*131 Usparce_tree/matrixP\[26\]\[26\]
*132 Usparce_tree/matrixP\[27\]\[27\]
*133 Usparce_tree/matrixP\[28\]\[17\]
*134 Usparce_tree/matrixP\[28\]\[25\]
*135 Usparce_tree/matrixP\[28\]\[27\]
*136 Usparce_tree/matrixP\[28\]\[28\]
*137 Usparce_tree/matrixP\[29\]\[29\]
*138 Usparce_tree/matrixP\[2\]\[2\]
*139 Usparce_tree/matrixP\[30\]\[29\]
*140 Usparce_tree/matrixP\[30\]\[30\]
*141 Usparce_tree/matrixP\[31\]\[31\]
*142 Usparce_tree/matrixP\[32\]\[17\]
*143 Usparce_tree/matrixP\[32\]\[25\]
*144 Usparce_tree/matrixP\[32\]\[29\]
*145 Usparce_tree/matrixP\[32\]\[31\]
*146 Usparce_tree/matrixP\[32\]\[32\]
*147 Usparce_tree/matrixP\[3\]\[3\]
*148 Usparce_tree/matrixP\[4\]\[3\]
*149 Usparce_tree/matrixP\[4\]\[4\]
*150 Usparce_tree/matrixP\[5\]\[5\]
*151 Usparce_tree/matrixP\[6\]\[5\]
*152 Usparce_tree/matrixP\[6\]\[6\]
*153 Usparce_tree/matrixP\[7\]\[7\]
*154 Usparce_tree/matrixP\[8\]\[5\]
*155 Usparce_tree/matrixP\[8\]\[7\]
*156 Usparce_tree/matrixP\[8\]\[8\]
*157 Usparce_tree/matrixP\[9\]\[9\]
*158 USum_generator/cs_gen_8/UADDER2/FAI_4/n3
*159 USum_generator/cs_gen_8/UADDER2/FAI_3/n1
*160 USum_generator/cs_gen_8/UADDER2/FAI_3/n3
*161 USum_generator/cs_gen_8/UADDER2/FAI_2/n1
*162 USum_generator/cs_gen_8/UADDER2/FAI_2/n3
*163 USum_generator/cs_gen_8/UADDER2/FAI_1/n1
*164 USum_generator/cs_gen_8/UADDER2/FAI_1/n3
*165 USum_generator/cs_gen_8/UADDER2/CTMP[1]
*166 USum_generator/cs_gen_8/UADDER2/CTMP[2]
*167 USum_generator/cs_gen_8/UADDER2/CTMP[3]
*168 USum_generator/cs_gen_8/UADDER1/FAI_4/n3
*169 USum_generator/cs_gen_8/UADDER1/FAI_3/n1
*170 USum_generator/cs_gen_8/UADDER1/FAI_3/n3
*171 USum_generator/cs_gen_8/UADDER1/FAI_2/n1
*172 USum_generator/cs_gen_8/UADDER1/FAI_2/n3
*173 USum_generator/cs_gen_8/UADDER1/FAI_1/n1
*174 USum_generator/cs_gen_8/UADDER1/FAI_1/n3
*175 USum_generator/cs_gen_8/UADDER1/CTMP[1]
*176 USum_generator/cs_gen_8/UADDER1/CTMP[2]
*177 USum_generator/cs_gen_8/UADDER1/CTMP[3]
*178 USum_generator/cs_gen_8/U1/SB
*179 USum_generator/cs_gen_8/U1/Y1[0]
*180 USum_generator/cs_gen_8/U1/Y1[1]
*181 USum_generator/cs_gen_8/U1/Y1[2]
*182 USum_generator/cs_gen_8/U1/Y1[3]
*183 USum_generator/cs_gen_8/U1/Y2[0]
*184 USum_generator/cs_gen_8/U1/Y2[1]
*185 USum_generator/cs_gen_8/U1/Y2[2]
*186 USum_generator/cs_gen_8/U1/Y2[3]
*187 USum_generator/cs_gen_8/S1[0]
*188 USum_generator/cs_gen_8/S1[1]
*189 USum_generator/cs_gen_8/S1[2]
*190 USum_generator/cs_gen_8/S1[3]
*191 USum_generator/cs_gen_8/S2[0]
*192 USum_generator/cs_gen_8/S2[1]
*193 USum_generator/cs_gen_8/S2[2]
*194 USum_generator/cs_gen_8/S2[3]
*195 USum_generator/cs_gen_7/UADDER2/FAI_4/n3
*196 USum_generator/cs_gen_7/UADDER2/FAI_3/n1
*197 USum_generator/cs_gen_7/UADDER2/FAI_3/n3
*198 USum_generator/cs_gen_7/UADDER2/FAI_2/n1
*199 USum_generator/cs_gen_7/UADDER2/FAI_2/n3
*200 USum_generator/cs_gen_7/UADDER2/FAI_1/n1
*201 USum_generator/cs_gen_7/UADDER2/FAI_1/n3
*202 USum_generator/cs_gen_7/UADDER2/CTMP[1]
*203 USum_generator/cs_gen_7/UADDER2/CTMP[2]
*204 USum_generator/cs_gen_7/UADDER2/CTMP[3]
*205 USum_generator/cs_gen_7/UADDER1/FAI_4/n3
*206 USum_generator/cs_gen_7/UADDER1/FAI_3/n1
*207 USum_generator/cs_gen_7/UADDER1/FAI_3/n3
*208 USum_generator/cs_gen_7/UADDER1/FAI_2/n1
*209 USum_generator/cs_gen_7/UADDER1/FAI_2/n3
*210 USum_generator/cs_gen_7/UADDER1/FAI_1/n1
*211 USum_generator/cs_gen_7/UADDER1/FAI_1/n3
*212 USum_generator/cs_gen_7/UADDER1/CTMP[1]
*213 USum_generator/cs_gen_7/UADDER1/CTMP[2]
*214 USum_generator/cs_gen_7/UADDER1/CTMP[3]
*215 USum_generator/cs_gen_7/U1/SB
*216 USum_generator/cs_gen_7/U1/Y1[0]
*217 USum_generator/cs_gen_7/U1/Y1[1]
*218 USum_generator/cs_gen_7/U1/Y1[2]
*219 USum_generator/cs_gen_7/U1/Y1[3]
*220 USum_generator/cs_gen_7/U1/Y2[0]
*221 USum_generator/cs_gen_7/U1/Y2[1]
*222 USum_generator/cs_gen_7/U1/Y2[2]
*223 USum_generator/cs_gen_7/U1/Y2[3]
*224 USum_generator/cs_gen_7/S1[0]
*225 USum_generator/cs_gen_7/S1[1]
*226 USum_generator/cs_gen_7/S1[2]
*227 USum_generator/cs_gen_7/S1[3]
*228 USum_generator/cs_gen_7/S2[0]
*229 USum_generator/cs_gen_7/S2[1]
*230 USum_generator/cs_gen_7/S2[2]
*231 USum_generator/cs_gen_7/S2[3]
*232 USum_generator/cs_gen_6/UADDER2/FAI_4/n3
*233 USum_generator/cs_gen_6/UADDER2/FAI_3/n1
*234 USum_generator/cs_gen_6/UADDER2/FAI_3/n3
*235 USum_generator/cs_gen_6/UADDER2/FAI_2/n1
*236 USum_generator/cs_gen_6/UADDER2/FAI_2/n3
*237 USum_generator/cs_gen_6/UADDER2/FAI_1/n1
*238 USum_generator/cs_gen_6/UADDER2/FAI_1/n3
*239 USum_generator/cs_gen_6/UADDER2/CTMP[1]
*240 USum_generator/cs_gen_6/UADDER2/CTMP[2]
*241 USum_generator/cs_gen_6/UADDER2/CTMP[3]
*242 USum_generator/cs_gen_6/UADDER1/FAI_4/n3
*243 USum_generator/cs_gen_6/UADDER1/FAI_3/n1
*244 USum_generator/cs_gen_6/UADDER1/FAI_3/n3
*245 USum_generator/cs_gen_6/UADDER1/FAI_2/n1
*246 USum_generator/cs_gen_6/UADDER1/FAI_2/n3
*247 USum_generator/cs_gen_6/UADDER1/FAI_1/n1
*248 USum_generator/cs_gen_6/UADDER1/FAI_1/n3
*249 USum_generator/cs_gen_6/UADDER1/CTMP[1]
*250 USum_generator/cs_gen_6/UADDER1/CTMP[2]
*251 USum_generator/cs_gen_6/UADDER1/CTMP[3]
*252 USum_generator/cs_gen_6/U1/SB
*253 USum_generator/cs_gen_6/U1/Y1[0]
*254 USum_generator/cs_gen_6/U1/Y1[1]
*255 USum_generator/cs_gen_6/U1/Y1[2]
*256 USum_generator/cs_gen_6/U1/Y1[3]
*257 USum_generator/cs_gen_6/U1/Y2[0]
*258 USum_generator/cs_gen_6/U1/Y2[1]
*259 USum_generator/cs_gen_6/U1/Y2[2]
*260 USum_generator/cs_gen_6/U1/Y2[3]
*261 USum_generator/cs_gen_6/S1[0]
*262 USum_generator/cs_gen_6/S1[1]
*263 USum_generator/cs_gen_6/S1[2]
*264 USum_generator/cs_gen_6/S1[3]
*265 USum_generator/cs_gen_6/S2[0]
*266 USum_generator/cs_gen_6/S2[1]
*267 USum_generator/cs_gen_6/S2[2]
*268 USum_generator/cs_gen_6/S2[3]
*269 USum_generator/cs_gen_5/UADDER2/FAI_4/n3
*270 USum_generator/cs_gen_5/UADDER2/FAI_3/n1
*271 USum_generator/cs_gen_5/UADDER2/FAI_3/n3
*272 USum_generator/cs_gen_5/UADDER2/FAI_2/n1
*273 USum_generator/cs_gen_5/UADDER2/FAI_2/n3
*274 USum_generator/cs_gen_5/UADDER2/FAI_1/n1
*275 USum_generator/cs_gen_5/UADDER2/FAI_1/n3
*276 USum_generator/cs_gen_5/UADDER2/CTMP[1]
*277 USum_generator/cs_gen_5/UADDER2/CTMP[2]
*278 USum_generator/cs_gen_5/UADDER2/CTMP[3]
*279 USum_generator/cs_gen_5/UADDER1/FAI_4/n3
*280 USum_generator/cs_gen_5/UADDER1/FAI_3/n1
*281 USum_generator/cs_gen_5/UADDER1/FAI_3/n3
*282 USum_generator/cs_gen_5/UADDER1/FAI_2/n1
*283 USum_generator/cs_gen_5/UADDER1/FAI_2/n3
*284 USum_generator/cs_gen_5/UADDER1/FAI_1/n1
*285 USum_generator/cs_gen_5/UADDER1/FAI_1/n3
*286 USum_generator/cs_gen_5/UADDER1/CTMP[1]
*287 USum_generator/cs_gen_5/UADDER1/CTMP[2]
*288 USum_generator/cs_gen_5/UADDER1/CTMP[3]
*289 USum_generator/cs_gen_5/U1/SB
*290 USum_generator/cs_gen_5/U1/Y1[0]
*291 USum_generator/cs_gen_5/U1/Y1[1]
*292 USum_generator/cs_gen_5/U1/Y1[2]
*293 USum_generator/cs_gen_5/U1/Y1[3]
*294 USum_generator/cs_gen_5/U1/Y2[0]
*295 USum_generator/cs_gen_5/U1/Y2[1]
*296 USum_generator/cs_gen_5/U1/Y2[2]
*297 USum_generator/cs_gen_5/U1/Y2[3]
*298 USum_generator/cs_gen_5/S1[0]
*299 USum_generator/cs_gen_5/S1[1]
*300 USum_generator/cs_gen_5/S1[2]
*301 USum_generator/cs_gen_5/S1[3]
*302 USum_generator/cs_gen_5/S2[0]
*303 USum_generator/cs_gen_5/S2[1]
*304 USum_generator/cs_gen_5/S2[2]
*305 USum_generator/cs_gen_5/S2[3]
*306 USum_generator/cs_gen_4/UADDER2/FAI_4/n3
*307 USum_generator/cs_gen_4/UADDER2/FAI_3/n1
*308 USum_generator/cs_gen_4/UADDER2/FAI_3/n3
*309 USum_generator/cs_gen_4/UADDER2/FAI_2/n1
*310 USum_generator/cs_gen_4/UADDER2/FAI_2/n3
*311 USum_generator/cs_gen_4/UADDER2/FAI_1/n1
*312 USum_generator/cs_gen_4/UADDER2/FAI_1/n3
*313 USum_generator/cs_gen_4/UADDER2/CTMP[1]
*314 USum_generator/cs_gen_4/UADDER2/CTMP[2]
*315 USum_generator/cs_gen_4/UADDER2/CTMP[3]
*316 USum_generator/cs_gen_4/UADDER1/FAI_4/n3
*317 USum_generator/cs_gen_4/UADDER1/FAI_3/n1
*318 USum_generator/cs_gen_4/UADDER1/FAI_3/n3
*319 USum_generator/cs_gen_4/UADDER1/FAI_2/n1
*320 USum_generator/cs_gen_4/UADDER1/FAI_2/n3
*321 USum_generator/cs_gen_4/UADDER1/FAI_1/n1
*322 USum_generator/cs_gen_4/UADDER1/FAI_1/n3
*323 USum_generator/cs_gen_4/UADDER1/CTMP[1]
*324 USum_generator/cs_gen_4/UADDER1/CTMP[2]
*325 USum_generator/cs_gen_4/UADDER1/CTMP[3]
*326 USum_generator/cs_gen_4/U1/SB
*327 USum_generator/cs_gen_4/U1/Y1[0]
*328 USum_generator/cs_gen_4/U1/Y1[1]
*329 USum_generator/cs_gen_4/U1/Y1[2]
*330 USum_generator/cs_gen_4/U1/Y1[3]
*331 USum_generator/cs_gen_4/U1/Y2[0]
*332 USum_generator/cs_gen_4/U1/Y2[1]
*333 USum_generator/cs_gen_4/U1/Y2[2]
*334 USum_generator/cs_gen_4/U1/Y2[3]
*335 USum_generator/cs_gen_4/S1[0]
*336 USum_generator/cs_gen_4/S1[1]
*337 USum_generator/cs_gen_4/S1[2]
*338 USum_generator/cs_gen_4/S1[3]
*339 USum_generator/cs_gen_4/S2[0]
*340 USum_generator/cs_gen_4/S2[1]
*341 USum_generator/cs_gen_4/S2[2]
*342 USum_generator/cs_gen_4/S2[3]
*343 USum_generator/cs_gen_3/UADDER2/FAI_4/n3
*344 USum_generator/cs_gen_3/UADDER2/FAI_3/n1
*345 USum_generator/cs_gen_3/UADDER2/FAI_3/n3
*346 USum_generator/cs_gen_3/UADDER2/FAI_2/n1
*347 USum_generator/cs_gen_3/UADDER2/FAI_2/n3
*348 USum_generator/cs_gen_3/UADDER2/FAI_1/n1
*349 USum_generator/cs_gen_3/UADDER2/FAI_1/n3
*350 USum_generator/cs_gen_3/UADDER2/CTMP[1]
*351 USum_generator/cs_gen_3/UADDER2/CTMP[2]
*352 USum_generator/cs_gen_3/UADDER2/CTMP[3]
*353 USum_generator/cs_gen_3/UADDER1/FAI_4/n3
*354 USum_generator/cs_gen_3/UADDER1/FAI_3/n1
*355 USum_generator/cs_gen_3/UADDER1/FAI_3/n3
*356 USum_generator/cs_gen_3/UADDER1/FAI_2/n1
*357 USum_generator/cs_gen_3/UADDER1/FAI_2/n3
*358 USum_generator/cs_gen_3/UADDER1/FAI_1/n1
*359 USum_generator/cs_gen_3/UADDER1/FAI_1/n3
*360 USum_generator/cs_gen_3/UADDER1/CTMP[1]
*361 USum_generator/cs_gen_3/UADDER1/CTMP[2]
*362 USum_generator/cs_gen_3/UADDER1/CTMP[3]
*363 USum_generator/cs_gen_3/U1/SB
*364 USum_generator/cs_gen_3/U1/Y1[0]
*365 USum_generator/cs_gen_3/U1/Y1[1]
*366 USum_generator/cs_gen_3/U1/Y1[2]
*367 USum_generator/cs_gen_3/U1/Y1[3]
*368 USum_generator/cs_gen_3/U1/Y2[0]
*369 USum_generator/cs_gen_3/U1/Y2[1]
*370 USum_generator/cs_gen_3/U1/Y2[2]
*371 USum_generator/cs_gen_3/U1/Y2[3]
*372 USum_generator/cs_gen_3/S1[0]
*373 USum_generator/cs_gen_3/S1[1]
*374 USum_generator/cs_gen_3/S1[2]
*375 USum_generator/cs_gen_3/S1[3]
*376 USum_generator/cs_gen_3/S2[0]
*377 USum_generator/cs_gen_3/S2[1]
*378 USum_generator/cs_gen_3/S2[2]
*379 USum_generator/cs_gen_3/S2[3]
*380 USum_generator/cs_gen_2/UADDER2/FAI_4/n3
*381 USum_generator/cs_gen_2/UADDER2/FAI_3/n1
*382 USum_generator/cs_gen_2/UADDER2/FAI_3/n3
*383 USum_generator/cs_gen_2/UADDER2/FAI_2/n1
*384 USum_generator/cs_gen_2/UADDER2/FAI_2/n3
*385 USum_generator/cs_gen_2/UADDER2/FAI_1/n1
*386 USum_generator/cs_gen_2/UADDER2/FAI_1/n3
*387 USum_generator/cs_gen_2/UADDER2/CTMP[1]
*388 USum_generator/cs_gen_2/UADDER2/CTMP[2]
*389 USum_generator/cs_gen_2/UADDER2/CTMP[3]
*390 USum_generator/cs_gen_2/UADDER1/FAI_4/n3
*391 USum_generator/cs_gen_2/UADDER1/FAI_3/n1
*392 USum_generator/cs_gen_2/UADDER1/FAI_3/n3
*393 USum_generator/cs_gen_2/UADDER1/FAI_2/n1
*394 USum_generator/cs_gen_2/UADDER1/FAI_2/n3
*395 USum_generator/cs_gen_2/UADDER1/FAI_1/n1
*396 USum_generator/cs_gen_2/UADDER1/FAI_1/n3
*397 USum_generator/cs_gen_2/UADDER1/CTMP[1]
*398 USum_generator/cs_gen_2/UADDER1/CTMP[2]
*399 USum_generator/cs_gen_2/UADDER1/CTMP[3]
*400 USum_generator/cs_gen_2/U1/SB
*401 USum_generator/cs_gen_2/U1/Y1[0]
*402 USum_generator/cs_gen_2/U1/Y1[1]
*403 USum_generator/cs_gen_2/U1/Y1[2]
*404 USum_generator/cs_gen_2/U1/Y1[3]
*405 USum_generator/cs_gen_2/U1/Y2[0]
*406 USum_generator/cs_gen_2/U1/Y2[1]
*407 USum_generator/cs_gen_2/U1/Y2[2]
*408 USum_generator/cs_gen_2/U1/Y2[3]
*409 USum_generator/cs_gen_2/S1[0]
*410 USum_generator/cs_gen_2/S1[1]
*411 USum_generator/cs_gen_2/S1[2]
*412 USum_generator/cs_gen_2/S1[3]
*413 USum_generator/cs_gen_2/S2[0]
*414 USum_generator/cs_gen_2/S2[1]
*415 USum_generator/cs_gen_2/S2[2]
*416 USum_generator/cs_gen_2/S2[3]
*417 USum_generator/cs_gen_1/UADDER2/FAI_4/n3
*418 USum_generator/cs_gen_1/UADDER2/FAI_3/n1
*419 USum_generator/cs_gen_1/UADDER2/FAI_3/n3
*420 USum_generator/cs_gen_1/UADDER2/FAI_2/n1
*421 USum_generator/cs_gen_1/UADDER2/FAI_2/n3
*422 USum_generator/cs_gen_1/UADDER2/FAI_1/n1
*423 USum_generator/cs_gen_1/UADDER2/FAI_1/n3
*424 USum_generator/cs_gen_1/UADDER2/CTMP[1]
*425 USum_generator/cs_gen_1/UADDER2/CTMP[2]
*426 USum_generator/cs_gen_1/UADDER2/CTMP[3]
*427 USum_generator/cs_gen_1/UADDER1/FAI_4/n3
*428 USum_generator/cs_gen_1/UADDER1/FAI_3/n1
*429 USum_generator/cs_gen_1/UADDER1/FAI_3/n3
*430 USum_generator/cs_gen_1/UADDER1/FAI_2/n1
*431 USum_generator/cs_gen_1/UADDER1/FAI_2/n3
*432 USum_generator/cs_gen_1/UADDER1/FAI_1/n2
*433 USum_generator/cs_gen_1/UADDER1/FAI_1/n3
*434 USum_generator/cs_gen_1/UADDER1/CTMP[1]
*435 USum_generator/cs_gen_1/UADDER1/CTMP[2]
*436 USum_generator/cs_gen_1/UADDER1/CTMP[3]
*437 USum_generator/cs_gen_1/U1/SB
*438 USum_generator/cs_gen_1/U1/Y1[0]
*439 USum_generator/cs_gen_1/U1/Y1[1]
*440 USum_generator/cs_gen_1/U1/Y1[2]
*441 USum_generator/cs_gen_1/U1/Y1[3]
*442 USum_generator/cs_gen_1/U1/Y2[0]
*443 USum_generator/cs_gen_1/U1/Y2[1]
*444 USum_generator/cs_gen_1/U1/Y2[2]
*445 USum_generator/cs_gen_1/U1/Y2[3]
*446 USum_generator/cs_gen_1/S1[0]
*447 USum_generator/cs_gen_1/S1[1]
*448 USum_generator/cs_gen_1/S1[2]
*449 USum_generator/cs_gen_1/S1[3]
*450 USum_generator/cs_gen_1/S2[0]
*451 USum_generator/cs_gen_1/S2[1]
*452 USum_generator/cs_gen_1/S2[2]
*453 USum_generator/cs_gen_1/S2[3]
*454 A[0]
*455 A[10]
*456 A[11]
*457 A[12]
*458 A[13]
*459 A[14]
*460 A[15]
*461 A[16]
*462 A[17]
*463 A[18]
*464 A[19]
*465 A[1]
*466 A[20]
*467 A[21]
*468 A[22]
*469 A[23]
*470 A[24]
*471 A[25]
*472 A[26]
*473 A[27]
*474 A[28]
*475 A[29]
*476 A[2]
*477 A[30]
*478 A[31]
*479 A[3]
*480 A[4]
*481 A[5]
*482 A[6]
*483 A[7]
*484 A[8]
*485 A[9]
*486 B[0]
*487 B[10]
*488 B[11]
*489 B[12]
*490 B[13]
*491 B[14]
*492 B[15]
*493 B[16]
*494 B[17]
*495 B[18]
*496 B[19]
*497 B[1]
*498 B[20]
*499 B[21]
*500 B[22]
*501 B[23]
*502 B[24]
*503 B[25]
*504 B[26]
*505 B[27]
*506 B[28]
*507 B[29]
*508 B[2]
*509 B[30]
*510 B[31]
*511 B[3]
*512 B[4]
*513 B[5]
*514 B[6]
*515 B[7]
*516 B[8]
*517 B[9]
*518 Ci
*519 Overf
*520 S[0]
*521 S[10]
*522 S[11]
*523 S[12]
*524 S[13]
*525 S[14]
*526 S[15]
*527 S[16]
*528 S[17]
*529 S[18]
*530 S[19]
*531 S[1]
*532 S[20]
*533 S[21]
*534 S[22]
*535 S[23]
*536 S[24]
*537 S[25]
*538 S[26]
*539 S[27]
*540 S[28]
*541 S[29]
*542 S[2]
*543 S[30]
*544 S[31]
*545 S[3]
*546 S[4]
*547 S[5]
*548 S[6]
*549 S[7]
*550 S[8]
*551 S[9]
*552 sCout[1]
*553 sCout[2]
*554 sCout[3]
*555 sCout[4]
*556 sCout[5]
*557 sCout[6]
*558 sCout[7]
*559 Usparce_tree/blkg_Cin_0/U1
*560 Usparce_tree/blkg_Cin_0/U2
*561 Usparce_tree/blkg_1_1/U1
*562 Usparce_tree/blkg_1_1/U2
*563 Usparce_tree/blkpg_1_2/U1
*564 Usparce_tree/blkpg_1_2/U2
*565 Usparce_tree/blkpg_1_2/U3
*566 Usparce_tree/blkpg_1_3/U1
*567 Usparce_tree/blkpg_1_3/U2
*568 Usparce_tree/blkpg_1_3/U3
*569 Usparce_tree/blkpg_1_4/U1
*570 Usparce_tree/blkpg_1_4/U2
*571 Usparce_tree/blkpg_1_4/U3
*572 Usparce_tree/blkpg_1_5/U1
*573 Usparce_tree/blkpg_1_5/U2
*574 Usparce_tree/blkpg_1_5/U3
*575 Usparce_tree/blkpg_1_6/U1
*576 Usparce_tree/blkpg_1_6/U2
*577 Usparce_tree/blkpg_1_6/U3
*578 Usparce_tree/blkpg_1_7/U1
*579 Usparce_tree/blkpg_1_7/U2
*580 Usparce_tree/blkpg_1_7/U3
*581 Usparce_tree/blkpg_1_8/U1
*582 Usparce_tree/blkpg_1_8/U2
*583 Usparce_tree/blkpg_1_8/U3
*584 Usparce_tree/blkpg_1_9/U1
*585 Usparce_tree/blkpg_1_9/U2
*586 Usparce_tree/blkpg_1_9/U3
*587 Usparce_tree/blkpg_1_10/U1
*588 Usparce_tree/blkpg_1_10/U2
*589 Usparce_tree/blkpg_1_10/U3
*590 Usparce_tree/blkpg_1_11/U1
*591 Usparce_tree/blkpg_1_11/U2
*592 Usparce_tree/blkpg_1_11/U3
*593 Usparce_tree/blkpg_1_12/U1
*594 Usparce_tree/blkpg_1_12/U2
*595 Usparce_tree/blkpg_1_12/U3
*596 Usparce_tree/blkpg_1_13/U1
*597 Usparce_tree/blkpg_1_13/U2
*598 Usparce_tree/blkpg_1_13/U3
*599 Usparce_tree/blkpg_1_14/U1
*600 Usparce_tree/blkpg_1_14/U2
*601 Usparce_tree/blkpg_1_14/U3
*602 Usparce_tree/blkpg_1_15/U1
*603 Usparce_tree/blkpg_1_15/U2
*604 Usparce_tree/blkpg_1_15/U3
*605 Usparce_tree/blkpg_1_16/U1
*606 Usparce_tree/blkpg_1_16/U2
*607 Usparce_tree/blkpg_1_16/U3
*608 Usparce_tree/blkg_2_1/U1
*609 Usparce_tree/blkg_2_1/U2
*610 Usparce_tree/blkpg_2_2/U1
*611 Usparce_tree/blkpg_2_2/U2
*612 Usparce_tree/blkpg_2_2/U3
*613 Usparce_tree/blkpg_2_3/U1
*614 Usparce_tree/blkpg_2_3/U2
*615 Usparce_tree/blkpg_2_3/U3
*616 Usparce_tree/blkpg_2_4/U1
*617 Usparce_tree/blkpg_2_4/U2
*618 Usparce_tree/blkpg_2_4/U3
*619 Usparce_tree/blkpg_2_5/U1
*620 Usparce_tree/blkpg_2_5/U2
*621 Usparce_tree/blkpg_2_5/U3
*622 Usparce_tree/blkpg_2_6/U1
*623 Usparce_tree/blkpg_2_6/U2
*624 Usparce_tree/blkpg_2_6/U3
*625 Usparce_tree/blkpg_2_7/U1
*626 Usparce_tree/blkpg_2_7/U2
*627 Usparce_tree/blkpg_2_7/U3
*628 Usparce_tree/blkpg_2_8/U1
*629 Usparce_tree/blkpg_2_8/U2
*630 Usparce_tree/blkpg_2_8/U3
*631 Usparce_tree/blkg_3_1/U1
*632 Usparce_tree/blkg_3_1/U2
*633 Usparce_tree/blkpg_3_2/U1
*634 Usparce_tree/blkpg_3_2/U2
*635 Usparce_tree/blkpg_3_2/U3
*636 Usparce_tree/blkpg_3_3/U1
*637 Usparce_tree/blkpg_3_3/U2
*638 Usparce_tree/blkpg_3_3/U3
*639 Usparce_tree/blkpg_3_4/U1
*640 Usparce_tree/blkpg_3_4/U2
*641 Usparce_tree/blkpg_3_4/U3
*642 Usparce_tree/blkg_4_1_0/U1
*643 Usparce_tree/blkg_4_1_0/U2
*644 Usparce_tree/blkg_4_1_1/U1
*645 Usparce_tree/blkg_4_1_1/U2
*646 Usparce_tree/blkpg_4_2_0/U1
*647 Usparce_tree/blkpg_4_2_0/U2
*648 Usparce_tree/blkpg_4_2_0/U3
*649 Usparce_tree/blkpg_4_2_1/U1
*650 Usparce_tree/blkpg_4_2_1/U2
*651 Usparce_tree/blkpg_4_2_1/U3
*652 Usparce_tree/blkg_5_1_0/U1
*653 Usparce_tree/blkg_5_1_0/U2
*654 Usparce_tree/blkg_5_1_1/U1
*655 Usparce_tree/blkg_5_1_1/U2
*656 Usparce_tree/blkg_5_1_2/U1
*657 Usparce_tree/blkg_5_1_2/U2
*658 Usparce_tree/blkg_5_1_3/U1
*659 Usparce_tree/blkg_5_1_3/U2
*660 Usparce_tree/U33
*661 Usparce_tree/U34
*662 Usparce_tree/U35
*663 Usparce_tree/U36
*664 Usparce_tree/U37
*665 Usparce_tree/U38
*666 Usparce_tree/U39
*667 Usparce_tree/U40
*668 Usparce_tree/U41
*669 Usparce_tree/U42
*670 Usparce_tree/U43
*671 Usparce_tree/U44
*672 Usparce_tree/U45
*673 Usparce_tree/U46
*674 Usparce_tree/U47
*675 Usparce_tree/U48
*676 Usparce_tree/U49
*677 Usparce_tree/U50
*678 Usparce_tree/U51
*679 Usparce_tree/U52
*680 Usparce_tree/U53
*681 Usparce_tree/U54
*682 Usparce_tree/U55
*683 Usparce_tree/U56
*684 Usparce_tree/U57
*685 Usparce_tree/U58
*686 Usparce_tree/U59
*687 Usparce_tree/U60
*688 Usparce_tree/U61
*689 Usparce_tree/U62
*690 Usparce_tree/U63
*691 Usparce_tree/U64
*692 Usparce_tree/U1
*693 Usparce_tree/U2
*694 Usparce_tree/U3
*695 Usparce_tree/U4
*696 Usparce_tree/U5
*697 Usparce_tree/U6
*698 Usparce_tree/U7
*699 Usparce_tree/U8
*700 Usparce_tree/U9
*701 Usparce_tree/U10
*702 Usparce_tree/U11
*703 Usparce_tree/U12
*704 Usparce_tree/U13
*705 Usparce_tree/U14
*706 Usparce_tree/U15
*707 Usparce_tree/U16
*708 Usparce_tree/U17
*709 Usparce_tree/U18
*710 Usparce_tree/U19
*711 Usparce_tree/U20
*712 Usparce_tree/U21
*713 Usparce_tree/U22
*714 Usparce_tree/U23
*715 Usparce_tree/U24
*716 Usparce_tree/U25
*717 Usparce_tree/U26
*718 Usparce_tree/U27
*719 Usparce_tree/U28
*720 Usparce_tree/U29
*721 Usparce_tree/U30
*722 Usparce_tree/U31
*723 Usparce_tree/U32
*724 USum_generator/cs_gen_1/UADDER1/FAI_1/U3
*725 USum_generator/cs_gen_1/UADDER1/FAI_1/U4
*726 USum_generator/cs_gen_1/UADDER1/FAI_1/U1
*727 USum_generator/cs_gen_1/UADDER1/FAI_1/U2
*728 USum_generator/cs_gen_1/UADDER1/FAI_2/U3
*729 USum_generator/cs_gen_1/UADDER1/FAI_2/U4
*730 USum_generator/cs_gen_1/UADDER1/FAI_2/U1
*731 USum_generator/cs_gen_1/UADDER1/FAI_2/U2
*732 USum_generator/cs_gen_1/UADDER1/FAI_3/U3
*733 USum_generator/cs_gen_1/UADDER1/FAI_3/U4
*734 USum_generator/cs_gen_1/UADDER1/FAI_3/U1
*735 USum_generator/cs_gen_1/UADDER1/FAI_3/U2
*736 USum_generator/cs_gen_1/UADDER1/FAI_4/U3
*737 USum_generator/cs_gen_1/UADDER1/FAI_4/U4
*738 USum_generator/cs_gen_1/UADDER2/FAI_1/U3
*739 USum_generator/cs_gen_1/UADDER2/FAI_1/U4
*740 USum_generator/cs_gen_1/UADDER2/FAI_1/U1
*741 USum_generator/cs_gen_1/UADDER2/FAI_1/U2
*742 USum_generator/cs_gen_1/UADDER2/FAI_2/U3
*743 USum_generator/cs_gen_1/UADDER2/FAI_2/U4
*744 USum_generator/cs_gen_1/UADDER2/FAI_2/U1
*745 USum_generator/cs_gen_1/UADDER2/FAI_2/U2
*746 USum_generator/cs_gen_1/UADDER2/FAI_3/U3
*747 USum_generator/cs_gen_1/UADDER2/FAI_3/U4
*748 USum_generator/cs_gen_1/UADDER2/FAI_3/U1
*749 USum_generator/cs_gen_1/UADDER2/FAI_3/U2
*750 USum_generator/cs_gen_1/UADDER2/FAI_4/U3
*751 USum_generator/cs_gen_1/UADDER2/FAI_4/U4
*752 USum_generator/cs_gen_1/U1/UIV/U1
*753 USum_generator/cs_gen_1/U1/UND1_3/U1
*754 USum_generator/cs_gen_1/U1/UND2_3/U1
*755 USum_generator/cs_gen_1/U1/UND3_3/U1
*756 USum_generator/cs_gen_1/U1/UND1_2/U1
*757 USum_generator/cs_gen_1/U1/UND2_2/U1
*758 USum_generator/cs_gen_1/U1/UND3_2/U1
*759 USum_generator/cs_gen_1/U1/UND1_1/U1
*760 USum_generator/cs_gen_1/U1/UND2_1/U1
*761 USum_generator/cs_gen_1/U1/UND3_1/U1
*762 USum_generator/cs_gen_1/U1/UND1_0/U1
*763 USum_generator/cs_gen_1/U1/UND2_0/U1
*764 USum_generator/cs_gen_1/U1/UND3_0/U1
*765 USum_generator/cs_gen_2/UADDER1/FAI_1/U3
*766 USum_generator/cs_gen_2/UADDER1/FAI_1/U4
*767 USum_generator/cs_gen_2/UADDER1/FAI_1/U1
*768 USum_generator/cs_gen_2/UADDER1/FAI_1/U2
*769 USum_generator/cs_gen_2/UADDER1/FAI_2/U3
*770 USum_generator/cs_gen_2/UADDER1/FAI_2/U4
*771 USum_generator/cs_gen_2/UADDER1/FAI_2/U1
*772 USum_generator/cs_gen_2/UADDER1/FAI_2/U2
*773 USum_generator/cs_gen_2/UADDER1/FAI_3/U3
*774 USum_generator/cs_gen_2/UADDER1/FAI_3/U4
*775 USum_generator/cs_gen_2/UADDER1/FAI_3/U1
*776 USum_generator/cs_gen_2/UADDER1/FAI_3/U2
*777 USum_generator/cs_gen_2/UADDER1/FAI_4/U3
*778 USum_generator/cs_gen_2/UADDER1/FAI_4/U4
*779 USum_generator/cs_gen_2/UADDER2/FAI_1/U3
*780 USum_generator/cs_gen_2/UADDER2/FAI_1/U4
*781 USum_generator/cs_gen_2/UADDER2/FAI_1/U1
*782 USum_generator/cs_gen_2/UADDER2/FAI_1/U2
*783 USum_generator/cs_gen_2/UADDER2/FAI_2/U3
*784 USum_generator/cs_gen_2/UADDER2/FAI_2/U4
*785 USum_generator/cs_gen_2/UADDER2/FAI_2/U1
*786 USum_generator/cs_gen_2/UADDER2/FAI_2/U2
*787 USum_generator/cs_gen_2/UADDER2/FAI_3/U3
*788 USum_generator/cs_gen_2/UADDER2/FAI_3/U4
*789 USum_generator/cs_gen_2/UADDER2/FAI_3/U1
*790 USum_generator/cs_gen_2/UADDER2/FAI_3/U2
*791 USum_generator/cs_gen_2/UADDER2/FAI_4/U3
*792 USum_generator/cs_gen_2/UADDER2/FAI_4/U4
*793 USum_generator/cs_gen_2/U1/UIV/U1
*794 USum_generator/cs_gen_2/U1/UND1_3/U1
*795 USum_generator/cs_gen_2/U1/UND2_3/U1
*796 USum_generator/cs_gen_2/U1/UND3_3/U1
*797 USum_generator/cs_gen_2/U1/UND1_2/U1
*798 USum_generator/cs_gen_2/U1/UND2_2/U1
*799 USum_generator/cs_gen_2/U1/UND3_2/U1
*800 USum_generator/cs_gen_2/U1/UND1_1/U1
*801 USum_generator/cs_gen_2/U1/UND2_1/U1
*802 USum_generator/cs_gen_2/U1/UND3_1/U1
*803 USum_generator/cs_gen_2/U1/UND1_0/U1
*804 USum_generator/cs_gen_2/U1/UND2_0/U1
*805 USum_generator/cs_gen_2/U1/UND3_0/U1
*806 USum_generator/cs_gen_3/UADDER1/FAI_1/U3
*807 USum_generator/cs_gen_3/UADDER1/FAI_1/U4
*808 USum_generator/cs_gen_3/UADDER1/FAI_1/U1
*809 USum_generator/cs_gen_3/UADDER1/FAI_1/U2
*810 USum_generator/cs_gen_3/UADDER1/FAI_2/U3
*811 USum_generator/cs_gen_3/UADDER1/FAI_2/U4
*812 USum_generator/cs_gen_3/UADDER1/FAI_2/U1
*813 USum_generator/cs_gen_3/UADDER1/FAI_2/U2
*814 USum_generator/cs_gen_3/UADDER1/FAI_3/U3
*815 USum_generator/cs_gen_3/UADDER1/FAI_3/U4
*816 USum_generator/cs_gen_3/UADDER1/FAI_3/U1
*817 USum_generator/cs_gen_3/UADDER1/FAI_3/U2
*818 USum_generator/cs_gen_3/UADDER1/FAI_4/U3
*819 USum_generator/cs_gen_3/UADDER1/FAI_4/U4
*820 USum_generator/cs_gen_3/UADDER2/FAI_1/U3
*821 USum_generator/cs_gen_3/UADDER2/FAI_1/U4
*822 USum_generator/cs_gen_3/UADDER2/FAI_1/U1
*823 USum_generator/cs_gen_3/UADDER2/FAI_1/U2
*824 USum_generator/cs_gen_3/UADDER2/FAI_2/U3
*825 USum_generator/cs_gen_3/UADDER2/FAI_2/U4
*826 USum_generator/cs_gen_3/UADDER2/FAI_2/U1
*827 USum_generator/cs_gen_3/UADDER2/FAI_2/U2
*828 USum_generator/cs_gen_3/UADDER2/FAI_3/U3
*829 USum_generator/cs_gen_3/UADDER2/FAI_3/U4
*830 USum_generator/cs_gen_3/UADDER2/FAI_3/U1
*831 USum_generator/cs_gen_3/UADDER2/FAI_3/U2
*832 USum_generator/cs_gen_3/UADDER2/FAI_4/U3
*833 USum_generator/cs_gen_3/UADDER2/FAI_4/U4
*834 USum_generator/cs_gen_3/U1/UIV/U1
*835 USum_generator/cs_gen_3/U1/UND1_3/U1
*836 USum_generator/cs_gen_3/U1/UND2_3/U1
*837 USum_generator/cs_gen_3/U1/UND3_3/U1
*838 USum_generator/cs_gen_3/U1/UND1_2/U1
*839 USum_generator/cs_gen_3/U1/UND2_2/U1
*840 USum_generator/cs_gen_3/U1/UND3_2/U1
*841 USum_generator/cs_gen_3/U1/UND1_1/U1
*842 USum_generator/cs_gen_3/U1/UND2_1/U1
*843 USum_generator/cs_gen_3/U1/UND3_1/U1
*844 USum_generator/cs_gen_3/U1/UND1_0/U1
*845 USum_generator/cs_gen_3/U1/UND2_0/U1
*846 USum_generator/cs_gen_3/U1/UND3_0/U1
*847 USum_generator/cs_gen_4/UADDER1/FAI_1/U3
*848 USum_generator/cs_gen_4/UADDER1/FAI_1/U4
*849 USum_generator/cs_gen_4/UADDER1/FAI_1/U1
*850 USum_generator/cs_gen_4/UADDER1/FAI_1/U2
*851 USum_generator/cs_gen_4/UADDER1/FAI_2/U3
*852 USum_generator/cs_gen_4/UADDER1/FAI_2/U4
*853 USum_generator/cs_gen_4/UADDER1/FAI_2/U1
*854 USum_generator/cs_gen_4/UADDER1/FAI_2/U2
*855 USum_generator/cs_gen_4/UADDER1/FAI_3/U3
*856 USum_generator/cs_gen_4/UADDER1/FAI_3/U4
*857 USum_generator/cs_gen_4/UADDER1/FAI_3/U1
*858 USum_generator/cs_gen_4/UADDER1/FAI_3/U2
*859 USum_generator/cs_gen_4/UADDER1/FAI_4/U3